
OS:Version,
  {7c359f88-5a93-434b-b470-fbfb2318ea59}, !- Handle
  3.3.0;                                  !- Version Identifier

OS:Schedule:Constant,
  {2363d98f-b5db-417e-9239-adfca1821404}, !- Handle
  Always On Discrete,                     !- Name
  {689c5556-0a4c-47a7-b80c-b4eca7645a55}, !- Schedule Type Limits Name
  1;                                      !- Value

OS:ScheduleTypeLimits,
  {689c5556-0a4c-47a7-b80c-b4eca7645a55}, !- Handle
  Always On Discrete Limits,              !- Name
  0,                                      !- Lower Limit Value
  1,                                      !- Upper Limit Value
  Discrete,                               !- Numeric Type
  Availability;                           !- Unit Type

OS:BuildingStory,
  {47622b9c-e851-4c22-b129-73f0a595e50a}, !- Handle
  EL1 Ground Flr,                         !- Name
  ,                                       !- Nominal Z Coordinate {m}
  ,                                       !- Nominal Floor to Floor Height {m}
  ,                                       !- Default Construction Set Name
  ,                                       !- Default Schedule Set Name
  ;                                       !- Group Rendering Name

OS:BuildingStory,
  {36116ecc-6294-45af-b1f2-5cb24bf18b2e}, !- Handle
  EL1 Mid Flrs,                           !- Name
  ,                                       !- Nominal Z Coordinate {m}
  ,                                       !- Nominal Floor to Floor Height {m}
  ,                                       !- Default Construction Set Name
  ,                                       !- Default Schedule Set Name
  ;                                       !- Group Rendering Name

OS:BuildingStory,
  {0311ec87-cb21-41eb-ad33-63682e3e8207}, !- Handle
  EL1 Top Flr,                            !- Name
  ,                                       !- Nominal Z Coordinate {m}
  ,                                       !- Nominal Floor to Floor Height {m}
  ,                                       !- Default Construction Set Name
  ,                                       !- Default Schedule Set Name
  ;                                       !- Group Rendering Name

OS:Space,
  {85ee12eb-6afd-43e4-b3f3-1c4b5005b3da}, !- Handle
  EL1 South Perim Spc (G.S1),             !- Name
  {0bedb0be-7a47-4a4a-853c-fa0bea05725e}, !- Space Type Name
  ,                                       !- Default Construction Set Name
  ,                                       !- Default Schedule Set Name
  -0,                                     !- Direction of Relative North {deg}
  0,                                      !- X Origin {m}
  0,                                      !- Y Origin {m}
  0,                                      !- Z Origin {m}
  {47622b9c-e851-4c22-b129-73f0a595e50a}, !- Building Story Name
  {7aca6d2a-31f8-460c-87bc-db5ed2759f12}; !- Thermal Zone Name

OS:Space,
  {52e0e420-0112-4b9f-a136-3d91870b8e14}, !- Handle
  EL1 East Perim Spc (G.E2),              !- Name
  {0bedb0be-7a47-4a4a-853c-fa0bea05725e}, !- Space Type Name
  ,                                       !- Default Construction Set Name
  ,                                       !- Default Schedule Set Name
  -0,                                     !- Direction of Relative North {deg}
  0,                                      !- X Origin {m}
  0,                                      !- Y Origin {m}
  0,                                      !- Z Origin {m}
  {47622b9c-e851-4c22-b129-73f0a595e50a}, !- Building Story Name
  {6ebb2719-4d6b-4788-8182-fd0393d6f19e}; !- Thermal Zone Name

OS:Space,
  {1de3c2e8-43a3-4f5f-9865-694010f4ac63}, !- Handle
  EL1 North Perim Spc (G.N3),             !- Name
  {0bedb0be-7a47-4a4a-853c-fa0bea05725e}, !- Space Type Name
  ,                                       !- Default Construction Set Name
  ,                                       !- Default Schedule Set Name
  -0,                                     !- Direction of Relative North {deg}
  0,                                      !- X Origin {m}
  0,                                      !- Y Origin {m}
  0,                                      !- Z Origin {m}
  {47622b9c-e851-4c22-b129-73f0a595e50a}, !- Building Story Name
  {b368a565-b770-4093-8e9a-b1a25ee5454e}; !- Thermal Zone Name

OS:Space,
  {aa359ad8-bcce-44f4-81ca-ff326bfb99f9}, !- Handle
  EL1 West Perim Spc (G.W4),              !- Name
  {0bedb0be-7a47-4a4a-853c-fa0bea05725e}, !- Space Type Name
  ,                                       !- Default Construction Set Name
  ,                                       !- Default Schedule Set Name
  -0,                                     !- Direction of Relative North {deg}
  0,                                      !- X Origin {m}
  0,                                      !- Y Origin {m}
  0,                                      !- Z Origin {m}
  {47622b9c-e851-4c22-b129-73f0a595e50a}, !- Building Story Name
  {9813e240-ab4f-4171-8a4e-926e4cd29528}, !- Thermal Zone Name
  ,                                       !- Part of Total Floor Area
  ,                                       !- Design Specification Outdoor Air Object Name
  ;                                       !- Building Unit Name

OS:Space,
  {f59d3a6a-219f-4e10-b7fc-333bd14a5210}, !- Handle
  EL1 Core Spc (G.C5),                    !- Name
  {5ee851b4-f2ae-4075-a7e1-6fa593c0b3ba}, !- Space Type Name
  ,                                       !- Default Construction Set Name
  ,                                       !- Default Schedule Set Name
  -0,                                     !- Direction of Relative North {deg}
  0,                                      !- X Origin {m}
  0,                                      !- Y Origin {m}
  0,                                      !- Z Origin {m}
  {47622b9c-e851-4c22-b129-73f0a595e50a}, !- Building Story Name
  {f85b3e73-8e2a-40ee-b164-d52066fcba00}; !- Thermal Zone Name

OS:Space,
  {061bf79d-e5c8-4139-93a8-ab074939b5fd}, !- Handle
  EL1 South Perim Plnm (G.S6),            !- Name
  {197e68ab-195b-4ad3-9452-c3b5ed7c640d}, !- Space Type Name
  ,                                       !- Default Construction Set Name
  ,                                       !- Default Schedule Set Name
  -0,                                     !- Direction of Relative North {deg}
  0,                                      !- X Origin {m}
  0,                                      !- Y Origin {m}
  0,                                      !- Z Origin {m}
  {47622b9c-e851-4c22-b129-73f0a595e50a}, !- Building Story Name
  {75a4b6e4-503d-4839-b5ec-386e4c7078ee}, !- Thermal Zone Name
  No;                                     !- Part of Total Floor Area

OS:Space,
  {f70f28ec-ed62-40ea-a374-ad13ee6b9677}, !- Handle
  EL1 East Perim Plnm (G.E7),             !- Name
  {197e68ab-195b-4ad3-9452-c3b5ed7c640d}, !- Space Type Name
  ,                                       !- Default Construction Set Name
  ,                                       !- Default Schedule Set Name
  -0,                                     !- Direction of Relative North {deg}
  0,                                      !- X Origin {m}
  0,                                      !- Y Origin {m}
  0,                                      !- Z Origin {m}
  {47622b9c-e851-4c22-b129-73f0a595e50a}, !- Building Story Name
  {0c2227c6-1c51-4bfa-8ddd-65de3849dc1e}, !- Thermal Zone Name
  No;                                     !- Part of Total Floor Area

OS:Space,
  {d8aa5ce1-287f-49c4-9537-d88deb08049f}, !- Handle
  EL1 North Perim Plnm (G.N8),            !- Name
  {197e68ab-195b-4ad3-9452-c3b5ed7c640d}, !- Space Type Name
  ,                                       !- Default Construction Set Name
  ,                                       !- Default Schedule Set Name
  -0,                                     !- Direction of Relative North {deg}
  0,                                      !- X Origin {m}
  0,                                      !- Y Origin {m}
  0,                                      !- Z Origin {m}
  {47622b9c-e851-4c22-b129-73f0a595e50a}, !- Building Story Name
  {aa71085f-6690-4b09-9e62-79f6273c9782}, !- Thermal Zone Name
  No;                                     !- Part of Total Floor Area

OS:Space,
  {1a25928b-2ad8-41d0-91ca-d9e48ecdcaa1}, !- Handle
  EL1 West Perim Plnm (G.W9),             !- Name
  {197e68ab-195b-4ad3-9452-c3b5ed7c640d}, !- Space Type Name
  ,                                       !- Default Construction Set Name
  ,                                       !- Default Schedule Set Name
  -0,                                     !- Direction of Relative North {deg}
  0,                                      !- X Origin {m}
  0,                                      !- Y Origin {m}
  0,                                      !- Z Origin {m}
  {47622b9c-e851-4c22-b129-73f0a595e50a}, !- Building Story Name
  {a9245d9c-0916-46e8-8ee7-130a7550c9bb}, !- Thermal Zone Name
  No;                                     !- Part of Total Floor Area

OS:Space,
  {9393ae79-4eaf-4111-82b3-e3f6140c2dcf}, !- Handle
  EL1 Core Plnm (G.C10),                  !- Name
  {197e68ab-195b-4ad3-9452-c3b5ed7c640d}, !- Space Type Name
  ,                                       !- Default Construction Set Name
  ,                                       !- Default Schedule Set Name
  -0,                                     !- Direction of Relative North {deg}
  0,                                      !- X Origin {m}
  0,                                      !- Y Origin {m}
  0,                                      !- Z Origin {m}
  {47622b9c-e851-4c22-b129-73f0a595e50a}, !- Building Story Name
  {80f7639a-7944-4e91-b618-f4f2c519eef2}, !- Thermal Zone Name
  No;                                     !- Part of Total Floor Area

OS:Space,
  {7f838e1d-a0e6-4ef8-918d-79be7dd72c84}, !- Handle
  EL1 South Perim Spc (M.S11),            !- Name
  {f35b22f1-af66-4882-99e4-271aef07eaa2}, !- Space Type Name
  ,                                       !- Default Construction Set Name
  ,                                       !- Default Schedule Set Name
  -0,                                     !- Direction of Relative North {deg}
  0,                                      !- X Origin {m}
  0,                                      !- Y Origin {m}
  0,                                      !- Z Origin {m}
  {36116ecc-6294-45af-b1f2-5cb24bf18b2e}, !- Building Story Name
  {8b169cde-2d17-4e68-bb26-ca768640fc77}, !- Thermal Zone Name
  ,                                       !- Part of Total Floor Area
  ,                                       !- Design Specification Outdoor Air Object Name
  ;                                       !- Building Unit Name

OS:Space,
  {ea141138-66c4-489f-87c4-95bea9d247ac}, !- Handle
  EL1 East Perim Spc (M.E12),             !- Name
  {f35b22f1-af66-4882-99e4-271aef07eaa2}, !- Space Type Name
  ,                                       !- Default Construction Set Name
  ,                                       !- Default Schedule Set Name
  -0,                                     !- Direction of Relative North {deg}
  0,                                      !- X Origin {m}
  0,                                      !- Y Origin {m}
  0,                                      !- Z Origin {m}
  {36116ecc-6294-45af-b1f2-5cb24bf18b2e}, !- Building Story Name
  {9ba1340c-4b5a-45e0-95a6-904b45ab7570}, !- Thermal Zone Name
  ,                                       !- Part of Total Floor Area
  ,                                       !- Design Specification Outdoor Air Object Name
  ;                                       !- Building Unit Name

OS:Space,
  {167bd646-a534-4a37-8593-0d080ace718f}, !- Handle
  EL1 North Perim Spc (M.N13),            !- Name
  {f35b22f1-af66-4882-99e4-271aef07eaa2}, !- Space Type Name
  ,                                       !- Default Construction Set Name
  ,                                       !- Default Schedule Set Name
  -0,                                     !- Direction of Relative North {deg}
  0,                                      !- X Origin {m}
  0,                                      !- Y Origin {m}
  0,                                      !- Z Origin {m}
  {36116ecc-6294-45af-b1f2-5cb24bf18b2e}, !- Building Story Name
  {a977fbb7-27a9-4447-9b65-b32c22ba2427}; !- Thermal Zone Name

OS:Space,
  {f277d959-4c10-4e56-ab6c-3a470b0713d1}, !- Handle
  EL1 West Perim Spc (M.W14),             !- Name
  {f35b22f1-af66-4882-99e4-271aef07eaa2}, !- Space Type Name
  ,                                       !- Default Construction Set Name
  ,                                       !- Default Schedule Set Name
  -0,                                     !- Direction of Relative North {deg}
  0,                                      !- X Origin {m}
  0,                                      !- Y Origin {m}
  0,                                      !- Z Origin {m}
  {36116ecc-6294-45af-b1f2-5cb24bf18b2e}, !- Building Story Name
  {3fd7f6ce-f844-4b4d-ac29-519d900762aa}; !- Thermal Zone Name

OS:Space,
  {8b87f37f-f873-4c2c-81d5-99a902cb886a}, !- Handle
  EL1 Core Spc (M.C15),                   !- Name
  {5e3fa265-0065-479f-911e-999552d05f79}, !- Space Type Name
  ,                                       !- Default Construction Set Name
  ,                                       !- Default Schedule Set Name
  -0,                                     !- Direction of Relative North {deg}
  0,                                      !- X Origin {m}
  0,                                      !- Y Origin {m}
  0,                                      !- Z Origin {m}
  {36116ecc-6294-45af-b1f2-5cb24bf18b2e}, !- Building Story Name
  {4ea219f0-6015-4c85-a526-592e17ebe18d}, !- Thermal Zone Name
  ,                                       !- Part of Total Floor Area
  ,                                       !- Design Specification Outdoor Air Object Name
  ;                                       !- Building Unit Name

OS:Space,
  {d927cf0d-7a6a-4e67-98f8-876be73bc9f7}, !- Handle
  EL1 South Perim Plnm (M.S16),           !- Name
  {197e68ab-195b-4ad3-9452-c3b5ed7c640d}, !- Space Type Name
  ,                                       !- Default Construction Set Name
  ,                                       !- Default Schedule Set Name
  -0,                                     !- Direction of Relative North {deg}
  0,                                      !- X Origin {m}
  0,                                      !- Y Origin {m}
  0,                                      !- Z Origin {m}
  {36116ecc-6294-45af-b1f2-5cb24bf18b2e}, !- Building Story Name
  {84bb0240-bdea-4b8a-8c3f-d56d9fa9b3e7}, !- Thermal Zone Name
  No,                                     !- Part of Total Floor Area
  ,                                       !- Design Specification Outdoor Air Object Name
  ;                                       !- Building Unit Name

OS:Space,
  {743c9e7d-0e15-465e-b339-486d5fdaccae}, !- Handle
  EL1 East Perim Plnm (M.E17),            !- Name
  {197e68ab-195b-4ad3-9452-c3b5ed7c640d}, !- Space Type Name
  ,                                       !- Default Construction Set Name
  ,                                       !- Default Schedule Set Name
  -0,                                     !- Direction of Relative North {deg}
  0,                                      !- X Origin {m}
  0,                                      !- Y Origin {m}
  0,                                      !- Z Origin {m}
  {36116ecc-6294-45af-b1f2-5cb24bf18b2e}, !- Building Story Name
  {39796db5-9c25-406d-b67b-58abf5eedebe}, !- Thermal Zone Name
  No,                                     !- Part of Total Floor Area
  ,                                       !- Design Specification Outdoor Air Object Name
  ;                                       !- Building Unit Name

OS:Space,
  {1d1486e4-2961-4134-b444-e2fe0a85609b}, !- Handle
  EL1 North Perim Plnm (M.N18),           !- Name
  {197e68ab-195b-4ad3-9452-c3b5ed7c640d}, !- Space Type Name
  ,                                       !- Default Construction Set Name
  ,                                       !- Default Schedule Set Name
  -0,                                     !- Direction of Relative North {deg}
  0,                                      !- X Origin {m}
  0,                                      !- Y Origin {m}
  0,                                      !- Z Origin {m}
  {36116ecc-6294-45af-b1f2-5cb24bf18b2e}, !- Building Story Name
  {48ffcb8d-2513-4651-97d1-78f3bf054dbc}, !- Thermal Zone Name
  No,                                     !- Part of Total Floor Area
  ,                                       !- Design Specification Outdoor Air Object Name
  ;                                       !- Building Unit Name

OS:Space,
  {c936e3d2-d7f0-48ce-bb2f-fc286ab886aa}, !- Handle
  EL1 West Perim Plnm (M.W19),            !- Name
  {197e68ab-195b-4ad3-9452-c3b5ed7c640d}, !- Space Type Name
  ,                                       !- Default Construction Set Name
  ,                                       !- Default Schedule Set Name
  -0,                                     !- Direction of Relative North {deg}
  0,                                      !- X Origin {m}
  0,                                      !- Y Origin {m}
  0,                                      !- Z Origin {m}
  {36116ecc-6294-45af-b1f2-5cb24bf18b2e}, !- Building Story Name
  {099a6c36-f32e-45f1-9ee0-391feb591cf2}, !- Thermal Zone Name
  No,                                     !- Part of Total Floor Area
  ,                                       !- Design Specification Outdoor Air Object Name
  ;                                       !- Building Unit Name

OS:Space,
  {36e5872b-3064-413d-85dc-ed2a2da7bc1d}, !- Handle
  EL1 Core Plnm (M.C20),                  !- Name
  {197e68ab-195b-4ad3-9452-c3b5ed7c640d}, !- Space Type Name
  ,                                       !- Default Construction Set Name
  ,                                       !- Default Schedule Set Name
  -0,                                     !- Direction of Relative North {deg}
  0,                                      !- X Origin {m}
  0,                                      !- Y Origin {m}
  0,                                      !- Z Origin {m}
  {36116ecc-6294-45af-b1f2-5cb24bf18b2e}, !- Building Story Name
  {4a9c15a2-466d-4afe-939d-5db647364052}, !- Thermal Zone Name
  No,                                     !- Part of Total Floor Area
  ,                                       !- Design Specification Outdoor Air Object Name
  ;                                       !- Building Unit Name

OS:Space,
  {f559b409-5996-486e-a473-b256bf143c45}, !- Handle
  EL1 South Perim Spc (T.S21),            !- Name
  {f35b22f1-af66-4882-99e4-271aef07eaa2}, !- Space Type Name
  ,                                       !- Default Construction Set Name
  ,                                       !- Default Schedule Set Name
  -0,                                     !- Direction of Relative North {deg}
  0,                                      !- X Origin {m}
  0,                                      !- Y Origin {m}
  -25.6032,                               !- Z Origin {m}
  {0311ec87-cb21-41eb-ad33-63682e3e8207}, !- Building Story Name
  {53e23dcf-7fdc-48ec-b8af-3213c45425e4}, !- Thermal Zone Name
  ,                                       !- Part of Total Floor Area
  ,                                       !- Design Specification Outdoor Air Object Name
  ;                                       !- Building Unit Name

OS:Space,
  {194e8b7f-c468-458c-8779-fd5c6cf13897}, !- Handle
  EL1 East Perim Spc (T.E22),             !- Name
  {f35b22f1-af66-4882-99e4-271aef07eaa2}, !- Space Type Name
  ,                                       !- Default Construction Set Name
  ,                                       !- Default Schedule Set Name
  -0,                                     !- Direction of Relative North {deg}
  0,                                      !- X Origin {m}
  0,                                      !- Y Origin {m}
  -25.6032,                               !- Z Origin {m}
  {0311ec87-cb21-41eb-ad33-63682e3e8207}, !- Building Story Name
  {7438028b-efb6-4814-aefb-de8dd6051ecd}; !- Thermal Zone Name

OS:Space,
  {8feb38e0-91c4-4354-a667-f5905d619237}, !- Handle
  EL1 North Perim Spc (T.N23),            !- Name
  {f35b22f1-af66-4882-99e4-271aef07eaa2}, !- Space Type Name
  ,                                       !- Default Construction Set Name
  ,                                       !- Default Schedule Set Name
  -0,                                     !- Direction of Relative North {deg}
  0,                                      !- X Origin {m}
  0,                                      !- Y Origin {m}
  -25.6032,                               !- Z Origin {m}
  {0311ec87-cb21-41eb-ad33-63682e3e8207}, !- Building Story Name
  {7a43038d-60f4-4a21-98c6-433ca8050700}; !- Thermal Zone Name

OS:Space,
  {935891a9-9444-4663-8fc3-8d406688b543}, !- Handle
  EL1 West Perim Spc (T.W24),             !- Name
  {f35b22f1-af66-4882-99e4-271aef07eaa2}, !- Space Type Name
  ,                                       !- Default Construction Set Name
  ,                                       !- Default Schedule Set Name
  -0,                                     !- Direction of Relative North {deg}
  0,                                      !- X Origin {m}
  0,                                      !- Y Origin {m}
  -25.6032,                               !- Z Origin {m}
  {0311ec87-cb21-41eb-ad33-63682e3e8207}, !- Building Story Name
  {3cc3c08a-db51-4c70-84ba-b775d75edbd3}; !- Thermal Zone Name

OS:Space,
  {e305a7ed-0ca0-4001-8b10-354cb6a22fca}, !- Handle
  EL1 Core Spc (T.C25),                   !- Name
  {5e3fa265-0065-479f-911e-999552d05f79}, !- Space Type Name
  ,                                       !- Default Construction Set Name
  ,                                       !- Default Schedule Set Name
  -0,                                     !- Direction of Relative North {deg}
  0,                                      !- X Origin {m}
  0,                                      !- Y Origin {m}
  -25.6032,                               !- Z Origin {m}
  {0311ec87-cb21-41eb-ad33-63682e3e8207}, !- Building Story Name
  {1045644c-2ff8-4527-b5c4-2e5cc4f68394}; !- Thermal Zone Name

OS:Space,
  {6a5ad3d2-4577-4876-9127-ddb1c70a56ca}, !- Handle
  EL1 South Perim Plnm (T.S26),           !- Name
  {197e68ab-195b-4ad3-9452-c3b5ed7c640d}, !- Space Type Name
  ,                                       !- Default Construction Set Name
  ,                                       !- Default Schedule Set Name
  -0,                                     !- Direction of Relative North {deg}
  0,                                      !- X Origin {m}
  0,                                      !- Y Origin {m}
  -25.6032,                               !- Z Origin {m}
  {0311ec87-cb21-41eb-ad33-63682e3e8207}, !- Building Story Name
  {f825ec98-d588-4d43-8864-a87ac3390ca6}, !- Thermal Zone Name
  No;                                     !- Part of Total Floor Area

OS:Space,
  {4a51d80a-b2f0-478f-bc73-0bb84552a892}, !- Handle
  EL1 East Perim Plnm (T.E27),            !- Name
  {197e68ab-195b-4ad3-9452-c3b5ed7c640d}, !- Space Type Name
  ,                                       !- Default Construction Set Name
  ,                                       !- Default Schedule Set Name
  -0,                                     !- Direction of Relative North {deg}
  0,                                      !- X Origin {m}
  0,                                      !- Y Origin {m}
  -25.6032,                               !- Z Origin {m}
  {0311ec87-cb21-41eb-ad33-63682e3e8207}, !- Building Story Name
  {52a395ec-cee5-4ce7-bb48-39d4fdf08ab5}, !- Thermal Zone Name
  No;                                     !- Part of Total Floor Area

OS:Space,
  {64d70786-5928-436d-bbec-f8d36462aee8}, !- Handle
  EL1 North Perim Plnm (T.N28),           !- Name
  {197e68ab-195b-4ad3-9452-c3b5ed7c640d}, !- Space Type Name
  ,                                       !- Default Construction Set Name
  ,                                       !- Default Schedule Set Name
  -0,                                     !- Direction of Relative North {deg}
  0,                                      !- X Origin {m}
  0,                                      !- Y Origin {m}
  -25.6032,                               !- Z Origin {m}
  {0311ec87-cb21-41eb-ad33-63682e3e8207}, !- Building Story Name
  {94f787bf-693c-42ee-94fa-6d97c5197ab3}, !- Thermal Zone Name
  No;                                     !- Part of Total Floor Area

OS:Space,
  {bbc763d4-3e7a-43de-ba2c-44cf455da6dc}, !- Handle
  EL1 West Perim Plnm (T.W29),            !- Name
  {197e68ab-195b-4ad3-9452-c3b5ed7c640d}, !- Space Type Name
  ,                                       !- Default Construction Set Name
  ,                                       !- Default Schedule Set Name
  -0,                                     !- Direction of Relative North {deg}
  0,                                      !- X Origin {m}
  0,                                      !- Y Origin {m}
  -25.6032,                               !- Z Origin {m}
  {0311ec87-cb21-41eb-ad33-63682e3e8207}, !- Building Story Name
  {64734a50-63d6-4152-a424-93574c87002d}, !- Thermal Zone Name
  No;                                     !- Part of Total Floor Area

OS:Space,
  {e45363d4-ba61-426f-b0c5-1eaadf1dc0b4}, !- Handle
  EL1 Core Plnm (T.C30),                  !- Name
  {197e68ab-195b-4ad3-9452-c3b5ed7c640d}, !- Space Type Name
  ,                                       !- Default Construction Set Name
  ,                                       !- Default Schedule Set Name
  -0,                                     !- Direction of Relative North {deg}
  0,                                      !- X Origin {m}
  0,                                      !- Y Origin {m}
  -25.6032,                               !- Z Origin {m}
  {0311ec87-cb21-41eb-ad33-63682e3e8207}, !- Building Story Name
  {b29f24cf-65fd-4779-b4a6-fc968daa3f7c}, !- Thermal Zone Name
  No;                                     !- Part of Total Floor Area

OS:Surface,
  {056da1a2-91d6-4bb4-8930-c4e065455eaa}, !- Handle
  EL1 South Wall (G.S1.E1),               !- Name
  Wall,                                   !- Surface Type
  ,                                       !- Construction Name
  {85ee12eb-6afd-43e4-b3f3-1c4b5005b3da}, !- Space Name
  Outdoors,                               !- Outside Boundary Condition
  ,                                       !- Outside Boundary Condition Object
  SunExposed,                             !- Sun Exposure
  WindExposed,                            !- Wind Exposure
  ,                                       !- View Factor to Ground
  ,                                       !- Number of Vertices
  0, 0, 2.7432,                           !- X,Y,Z Vertex 1 {m}
  0, 0, 0,                                !- X,Y,Z Vertex 2 {m}
  49.3776, 0, 0,                          !- X,Y,Z Vertex 3 {m}
  49.3776, 0, 2.7432;                     !- X,Y,Z Vertex 4 {m}

OS:SubSurface,
  {5ed31ca6-0cd8-46bf-a055-9fec5549a1cb}, !- Handle
  EL1 South Win (G.S1.E1.W1),             !- Name
  FixedWindow,                            !- Sub Surface Type
  ,                                       !- Construction Name
  {056da1a2-91d6-4bb4-8930-c4e065455eaa}, !- Surface Name
  ,                                       !- Outside Boundary Condition Object
  ,                                       !- View Factor to Ground
  ,                                       !- Frame and Divider Name
  ,                                       !- Multiplier
  ,                                       !- Number of Vertices
  5.95935816, 0, 2.505456,                !- X,Y,Z Vertex 1 {m}
  5.95935816, 0, 0.9144,                  !- X,Y,Z Vertex 2 {m}
  43.41836376, 0, 0.9144,                 !- X,Y,Z Vertex 3 {m}
  43.41836376, 0, 2.505456;               !- X,Y,Z Vertex 4 {m}

OS:Surface,
  {2efbb5b5-b604-4a28-b04d-7b8a47e971e8}, !- Handle
  EL1 NE Wall (G.S1.I1),                  !- Name
  Wall,                                   !- Surface Type
  ,                                       !- Construction Name
  {85ee12eb-6afd-43e4-b3f3-1c4b5005b3da}, !- Space Name
  Surface,                                !- Outside Boundary Condition
  {32f7a3e5-e923-48fd-9b3d-52d761683205}, !- Outside Boundary Condition Object
  NoSun,                                  !- Sun Exposure
  NoWind,                                 !- Wind Exposure
  ,                                       !- View Factor to Ground
  ,                                       !- Number of Vertices
  49.3776, 0, 2.7432,                     !- X,Y,Z Vertex 1 {m}
  49.3776, 0, 0,                          !- X,Y,Z Vertex 2 {m}
  44.8056, 4.572, 0,                      !- X,Y,Z Vertex 3 {m}
  44.8056, 4.572, 2.7432;                 !- X,Y,Z Vertex 4 {m}

OS:Surface,
  {32f7a3e5-e923-48fd-9b3d-52d761683205}, !- Handle
  EL1 NE Wall (G.S1.I1)-mirror,           !- Name
  Wall,                                   !- Surface Type
  ,                                       !- Construction Name
  {52e0e420-0112-4b9f-a136-3d91870b8e14}, !- Space Name
  Surface,                                !- Outside Boundary Condition
  {2efbb5b5-b604-4a28-b04d-7b8a47e971e8}, !- Outside Boundary Condition Object
  NoSun,                                  !- Sun Exposure
  NoWind,                                 !- Wind Exposure
  ,                                       !- View Factor to Ground
  ,                                       !- Number of Vertices
  44.8056, 4.572, 2.7432,                 !- X,Y,Z Vertex 1 {m}
  44.8056, 4.572, 0,                      !- X,Y,Z Vertex 2 {m}
  49.3776, 0, 0,                          !- X,Y,Z Vertex 3 {m}
  49.3776, 0, 2.7432;                     !- X,Y,Z Vertex 4 {m}

OS:Surface,
  {391ce257-7a1c-4076-9980-2e980aad7f3e}, !- Handle