
OS:Version,
  {3f75c9dc-cab1-47bd-adb3-9a410c21c359}, !- Handle
  3.3.0;                                  !- Version Identifier

OS:Schedule:Constant,
  {d994d981-743e-4d1e-bac5-10a9c679e665}, !- Handle
  Always On Discrete,                     !- Name
  {223ed602-376f-46cd-a2e9-0afb89b1632d}, !- Schedule Type Limits Name
  1;                                      !- Value

OS:ScheduleTypeLimits,
  {223ed602-376f-46cd-a2e9-0afb89b1632d}, !- Handle
  Always On Discrete Limits,              !- Name
  0,                                      !- Lower Limit Value
  1,                                      !- Upper Limit Value
  Discrete,                               !- Numeric Type
  Availability;                           !- Unit Type

OS:BuildingStory,
  {47622b9c-e851-4c22-b129-73f0a595e50a}, !- Handle
  EL1 Ground Flr,                         !- Name
  ,                                       !- Nominal Z Coordinate {m}
  ,                                       !- Nominal Floor to Floor Height {m}
  ,                                       !- Default Construction Set Name
  ,                                       !- Default Schedule Set Name
  ;                                       !- Group Rendering Name

OS:BuildingStory,
  {36116ecc-6294-45af-b1f2-5cb24bf18b2e}, !- Handle
  EL1 Mid Flrs,                           !- Name
  ,                                       !- Nominal Z Coordinate {m}
  ,                                       !- Nominal Floor to Floor Height {m}
  ,                                       !- Default Construction Set Name
  ,                                       !- Default Schedule Set Name
  ;                                       !- Group Rendering Name

OS:BuildingStory,
  {0311ec87-cb21-41eb-ad33-63682e3e8207}, !- Handle
  EL1 Top Flr,                            !- Name
  ,                                       !- Nominal Z Coordinate {m}
  ,                                       !- Nominal Floor to Floor Height {m}
  ,                                       !- Default Construction Set Name
  ,                                       !- Default Schedule Set Name
  ;                                       !- Group Rendering Name

OS:Space,
  {85ee12eb-6afd-43e4-b3f3-1c4b5005b3da}, !- Handle
  EL1 South Perim Spc (G.S1),             !- Name
  {0bedb0be-7a47-4a4a-853c-fa0bea05725e}, !- Space Type Name
  ,                                       !- Default Construction Set Name
  ,                                       !- Default Schedule Set Name
  -0,                                     !- Direction of Relative North {deg}
  0,                                      !- X Origin {m}
  0,                                      !- Y Origin {m}
  0,                                      !- Z Origin {m}
  {47622b9c-e851-4c22-b129-73f0a595e50a}, !- Building Story Name
  {608809f7-e789-4acb-8ba3-b820ea19b340}; !- Thermal Zone Name

OS:Space,
  {52e0e420-0112-4b9f-a136-3d91870b8e14}, !- Handle
  EL1 East Perim Spc (G.E2),              !- Name
  {0bedb0be-7a47-4a4a-853c-fa0bea05725e}, !- Space Type Name
  ,                                       !- Default Construction Set Name
  ,                                       !- Default Schedule Set Name
  -0,                                     !- Direction of Relative North {deg}
  0,                                      !- X Origin {m}
  0,                                      !- Y Origin {m}
  0,                                      !- Z Origin {m}
  {47622b9c-e851-4c22-b129-73f0a595e50a}, !- Building Story Name
  {dde0769c-43ff-4d30-9b3e-8489a52ca640}; !- Thermal Zone Name

OS:Space,
  {1de3c2e8-43a3-4f5f-9865-694010f4ac63}, !- Handle
  EL1 North Perim Spc (G.N3),             !- Name
  {0bedb0be-7a47-4a4a-853c-fa0bea05725e}, !- Space Type Name
  ,                                       !- Default Construction Set Name
  ,                                       !- Default Schedule Set Name
  -0,                                     !- Direction of Relative North {deg}
  0,                                      !- X Origin {m}
  0,                                      !- Y Origin {m}
  0,                                      !- Z Origin {m}
  {47622b9c-e851-4c22-b129-73f0a595e50a}, !- Building Story Name
  {01e3fab2-a09d-40a6-8df4-2a6945832f3e}; !- Thermal Zone Name

OS:Space,
  {aa359ad8-bcce-44f4-81ca-ff326bfb99f9}, !- Handle
  EL1 West Perim Spc (G.W4),              !- Name
  {0bedb0be-7a47-4a4a-853c-fa0bea05725e}, !- Space Type Name
  ,                                       !- Default Construction Set Name
  ,                                       !- Default Schedule Set Name
  -0,                                     !- Direction of Relative North {deg}
  0,                                      !- X Origin {m}
  0,                                      !- Y Origin {m}
  0,                                      !- Z Origin {m}
  {47622b9c-e851-4c22-b129-73f0a595e50a}, !- Building Story Name
  {981d406b-53e9-45c1-accb-d6b44c5910c1}, !- Thermal Zone Name
  ,                                       !- Part of Total Floor Area
  ,                                       !- Design Specification Outdoor Air Object Name
  ;                                       !- Building Unit Name

OS:Space,
  {f59d3a6a-219f-4e10-b7fc-333bd14a5210}, !- Handle
  EL1 Core Spc (G.C5),                    !- Name
  {5ee851b4-f2ae-4075-a7e1-6fa593c0b3ba}, !- Space Type Name
  ,                                       !- Default Construction Set Name
  ,                                       !- Default Schedule Set Name
  -0,                                     !- Direction of Relative North {deg}
  0,                                      !- X Origin {m}
  0,                                      !- Y Origin {m}
  0,                                      !- Z Origin {m}
  {47622b9c-e851-4c22-b129-73f0a595e50a}, !- Building Story Name
  {16c1c4ad-589b-49fd-aaba-215e3e4aa792}; !- Thermal Zone Name

OS:Space,
  {061bf79d-e5c8-4139-93a8-ab074939b5fd}, !- Handle
  EL1 South Perim Plnm (G.S6),            !- Name
  {197e68ab-195b-4ad3-9452-c3b5ed7c640d}, !- Space Type Name
  ,                                       !- Default Construction Set Name
  ,                                       !- Default Schedule Set Name
  -0,                                     !- Direction of Relative North {deg}
  0,                                      !- X Origin {m}
  0,                                      !- Y Origin {m}
  0,                                      !- Z Origin {m}
  {47622b9c-e851-4c22-b129-73f0a595e50a}, !- Building Story Name
  {61f35a91-e518-45fa-835b-caeb0f776065}, !- Thermal Zone Name
  No;                                     !- Part of Total Floor Area

OS:Space,
  {f70f28ec-ed62-40ea-a374-ad13ee6b9677}, !- Handle
  EL1 East Perim Plnm (G.E7),             !- Name
  {197e68ab-195b-4ad3-9452-c3b5ed7c640d}, !- Space Type Name
  ,                                       !- Default Construction Set Name
  ,                                       !- Default Schedule Set Name
  -0,                                     !- Direction of Relative North {deg}
  0,                                      !- X Origin {m}
  0,                                      !- Y Origin {m}
  0,                                      !- Z Origin {m}
  {47622b9c-e851-4c22-b129-73f0a595e50a}, !- Building Story Name
  {f6c7f4bf-c859-4ceb-8b36-a6db69e1e551}, !- Thermal Zone Name
  No;                                     !- Part of Total Floor Area

OS:Space,
  {d8aa5ce1-287f-49c4-9537-d88deb08049f}, !- Handle
  EL1 North Perim Plnm (G.N8),            !- Name
  {197e68ab-195b-4ad3-9452-c3b5ed7c640d}, !- Space Type Name
  ,                                       !- Default Construction Set Name
  ,                                       !- Default Schedule Set Name
  -0,                                     !- Direction of Relative North {deg}
  0,                                      !- X Origin {m}
  0,                                      !- Y Origin {m}
  0,                                      !- Z Origin {m}
  {47622b9c-e851-4c22-b129-73f0a595e50a}, !- Building Story Name
  {10391b1e-f953-4a71-a99b-5cda755ae18b}, !- Thermal Zone Name
  No;                                     !- Part of Total Floor Area

OS:Space,
  {1a25928b-2ad8-41d0-91ca-d9e48ecdcaa1}, !- Handle
  EL1 West Perim Plnm (G.W9),             !- Name
  {197e68ab-195b-4ad3-9452-c3b5ed7c640d}, !- Space Type Name
  ,                                       !- Default Construction Set Name
  ,                                       !- Default Schedule Set Name
  -0,                                     !- Direction of Relative North {deg}
  0,                                      !- X Origin {m}
  0,                                      !- Y Origin {m}
  0,                                      !- Z Origin {m}
  {47622b9c-e851-4c22-b129-73f0a595e50a}, !- Building Story Name
  {cba25ec9-811d-4cfe-a7c6-1aac1d1d1f2b}, !- Thermal Zone Name
  No;                                     !- Part of Total Floor Area

OS:Space,
  {9393ae79-4eaf-4111-82b3-e3f6140c2dcf}, !- Handle
  EL1 Core Plnm (G.C10),                  !- Name
  {197e68ab-195b-4ad3-9452-c3b5ed7c640d}, !- Space Type Name
  ,                                       !- Default Construction Set Name
  ,                                       !- Default Schedule Set Name
  -0,                                     !- Direction of Relative North {deg}
  0,                                      !- X Origin {m}
  0,                                      !- Y Origin {m}
  0,                                      !- Z Origin {m}
  {47622b9c-e851-4c22-b129-73f0a595e50a}, !- Building Story Name
  {127b154d-bdd2-48e5-baa2-1bfc79e7b3cb}, !- Thermal Zone Name
  No;                                     !- Part of Total Floor Area

OS:Space,
  {7f838e1d-a0e6-4ef8-918d-79be7dd72c84}, !- Handle
  EL1 South Perim Spc (M.S11),            !- Name
  {f35b22f1-af66-4882-99e4-271aef07eaa2}, !- Space Type Name
  ,                                       !- Default Construction Set Name
  ,                                       !- Default Schedule Set Name
  -0,                                     !- Direction of Relative North {deg}
  0,                                      !- X Origin {m}
  0,                                      !- Y Origin {m}
  0,                                      !- Z Origin {m}
  {36116ecc-6294-45af-b1f2-5cb24bf18b2e}, !- Building Story Name
  {40de4f98-05df-40ce-9250-5c3e01c65567}, !- Thermal Zone Name
  ,                                       !- Part of Total Floor Area
  ,                                       !- Design Specification Outdoor Air Object Name
  ;                                       !- Building Unit Name

OS:Space,
  {ea141138-66c4-489f-87c4-95bea9d247ac}, !- Handle
  EL1 East Perim Spc (M.E12),             !- Name
  {f35b22f1-af66-4882-99e4-271aef07eaa2}, !- Space Type Name
  ,                                       !- Default Construction Set Name
  ,                                       !- Default Schedule Set Name
  -0,                                     !- Direction of Relative North {deg}
  0,                                      !- X Origin {m}
  0,                                      !- Y Origin {m}
  0,                                      !- Z Origin {m}
  {36116ecc-6294-45af-b1f2-5cb24bf18b2e}, !- Building Story Name
  {fa630094-00e9-40f8-a8c2-6e79dfdb243f}, !- Thermal Zone Name
  ,                                       !- Part of Total Floor Area
  ,                                       !- Design Specification Outdoor Air Object Name
  ;                                       !- Building Unit Name

OS:Space,
  {167bd646-a534-4a37-8593-0d080ace718f}, !- Handle
  EL1 North Perim Spc (M.N13),            !- Name
  {f35b22f1-af66-4882-99e4-271aef07eaa2}, !- Space Type Name
  ,                                       !- Default Construction Set Name
  ,                                       !- Default Schedule Set Name
  -0,                                     !- Direction of Relative North {deg}
  0,                                      !- X Origin {m}
  0,                                      !- Y Origin {m}
  0,                                      !- Z Origin {m}
  {36116ecc-6294-45af-b1f2-5cb24bf18b2e}, !- Building Story Name
  {228c7f66-96f6-404e-a948-3e5350fbb3b9}; !- Thermal Zone Name

OS:Space,
  {f277d959-4c10-4e56-ab6c-3a470b0713d1}, !- Handle
  EL1 West Perim Spc (M.W14),             !- Name
  {f35b22f1-af66-4882-99e4-271aef07eaa2}, !- Space Type Name
  ,                                       !- Default Construction Set Name
  ,                                       !- Default Schedule Set Name
  -0,                                     !- Direction of Relative North {deg}
  0,                                      !- X Origin {m}
  0,                                      !- Y Origin {m}
  0,                                      !- Z Origin {m}
  {36116ecc-6294-45af-b1f2-5cb24bf18b2e}, !- Building Story Name
  {1f2d37d0-445e-4484-8463-58a37afaed03}; !- Thermal Zone Name

OS:Space,
  {8b87f37f-f873-4c2c-81d5-99a902cb886a}, !- Handle
  EL1 Core Spc (M.C15),                   !- Name
  {5e3fa265-0065-479f-911e-999552d05f79}, !- Space Type Name
  ,                                       !- Default Construction Set Name
  ,                                       !- Default Schedule Set Name
  -0,                                     !- Direction of Relative North {deg}
  0,                                      !- X Origin {m}
  0,                                      !- Y Origin {m}
  0,                                      !- Z Origin {m}
  {36116ecc-6294-45af-b1f2-5cb24bf18b2e}, !- Building Story Name
  {b6e161b4-b8b9-422c-ac25-79bfd6ca79bb}, !- Thermal Zone Name
  ,                                       !- Part of Total Floor Area
  ,                                       !- Design Specification Outdoor Air Object Name
  ;                                       !- Building Unit Name

OS:Space,
  {d927cf0d-7a6a-4e67-98f8-876be73bc9f7}, !- Handle
  EL1 South Perim Plnm (M.S16),           !- Name
  {197e68ab-195b-4ad3-9452-c3b5ed7c640d}, !- Space Type Name
  ,                                       !- Default Construction Set Name
  ,                                       !- Default Schedule Set Name
  -0,                                     !- Direction of Relative North {deg}
  0,                                      !- X Origin {m}
  0,                                      !- Y Origin {m}
  0,                                      !- Z Origin {m}
  {36116ecc-6294-45af-b1f2-5cb24bf18b2e}, !- Building Story Name
  {16b19bdf-8e21-44d0-a47f-3f45e08bef84}, !- Thermal Zone Name
  No,                                     !- Part of Total Floor Area
  ,                                       !- Design Specification Outdoor Air Object Name
  ;                                       !- Building Unit Name

OS:Space,
  {743c9e7d-0e15-465e-b339-486d5fdaccae}, !- Handle
  EL1 East Perim Plnm (M.E17),            !- Name
  {197e68ab-195b-4ad3-9452-c3b5ed7c640d}, !- Space Type Name
  ,                                       !- Default Construction Set Name
  ,                                       !- Default Schedule Set Name
  -0,                                     !- Direction of Relative North {deg}
  0,                                      !- X Origin {m}
  0,                                      !- Y Origin {m}
  0,                                      !- Z Origin {m}
  {36116ecc-6294-45af-b1f2-5cb24bf18b2e}, !- Building Story Name
  {6c430265-681f-45da-967e-f7fa225be8c9}, !- Thermal Zone Name
  No,                                     !- Part of Total Floor Area
  ,                                       !- Design Specification Outdoor Air Object Name
  ;                                       !- Building Unit Name

OS:Space,
  {1d1486e4-2961-4134-b444-e2fe0a85609b}, !- Handle
  EL1 North Perim Plnm (M.N18),           !- Name
  {197e68ab-195b-4ad3-9452-c3b5ed7c640d}, !- Space Type Name
  ,                                       !- Default Construction Set Name
  ,                                       !- Default Schedule Set Name
  -0,                                     !- Direction of Relative North {deg}
  0,                                      !- X Origin {m}
  0,                                      !- Y Origin {m}
  0,                                      !- Z Origin {m}
  {36116ecc-6294-45af-b1f2-5cb24bf18b2e}, !- Building Story Name
  {f9cd485c-472b-4aff-a22b-c6c161c2ad06}, !- Thermal Zone Name
  No,                                     !- Part of Total Floor Area
  ,                                       !- Design Specification Outdoor Air Object Name
  ;                                       !- Building Unit Name

OS:Space,
  {c936e3d2-d7f0-48ce-bb2f-fc286ab886aa}, !- Handle
  EL1 West Perim Plnm (M.W19),            !- Name
  {197e68ab-195b-4ad3-9452-c3b5ed7c640d}, !- Space Type Name
  ,                                       !- Default Construction Set Name
  ,                                       !- Default Schedule Set Name
  -0,                                     !- Direction of Relative North {deg}
  0,                                      !- X Origin {m}
  0,                                      !- Y Origin {m}
  0,                                      !- Z Origin {m}
  {36116ecc-6294-45af-b1f2-5cb24bf18b2e}, !- Building Story Name
  {0d681fe7-eacf-48f2-bd8d-77184f4ff4c8}, !- Thermal Zone Name
  No,                                     !- Part of Total Floor Area
  ,                                       !- Design Specification Outdoor Air Object Name
  ;                                       !- Building Unit Name

OS:Space,
  {36e5872b-3064-413d-85dc-ed2a2da7bc1d}, !- Handle
  EL1 Core Plnm (M.C20),                  !- Name
  {197e68ab-195b-4ad3-9452-c3b5ed7c640d}, !- Space Type Name
  ,                                       !- Default Construction Set Name
  ,                                       !- Default Schedule Set Name
  -0,                                     !- Direction of Relative North {deg}
  0,                                      !- X Origin {m}
  0,                                      !- Y Origin {m}
  0,                                      !- Z Origin {m}
  {36116ecc-6294-45af-b1f2-5cb24bf18b2e}, !- Building Story Name
  {db7655b9-93fb-44b5-8fd6-8a837aac56f3}, !- Thermal Zone Name
  No,                                     !- Part of Total Floor Area
  ,                                       !- Design Specification Outdoor Air Object Name
  ;                                       !- Building Unit Name

OS:Space,
  {f559b409-5996-486e-a473-b256bf143c45}, !- Handle
  EL1 South Perim Spc (T.S21),            !- Name
  {f35b22f1-af66-4882-99e4-271aef07eaa2}, !- Space Type Name
  ,                                       !- Default Construction Set Name
  ,                                       !- Default Schedule Set Name
  -0,                                     !- Direction of Relative North {deg}
  0,                                      !- X Origin {m}
  0,                                      !- Y Origin {m}
  -25.6032,                               !- Z Origin {m}
  {0311ec87-cb21-41eb-ad33-63682e3e8207}, !- Building Story Name
  {692ade03-a720-4725-bbb3-bac60b11dba4}, !- Thermal Zone Name
  ,                                       !- Part of Total Floor Area
  ,                                       !- Design Specification Outdoor Air Object Name
  ;                                       !- Building Unit Name

OS:Space,
  {194e8b7f-c468-458c-8779-fd5c6cf13897}, !- Handle
  EL1 East Perim Spc (T.E22),             !- Name
  {f35b22f1-af66-4882-99e4-271aef07eaa2}, !- Space Type Name
  ,                                       !- Default Construction Set Name
  ,                                       !- Default Schedule Set Name
  -0,                                     !- Direction of Relative North {deg}
  0,                                      !- X Origin {m}
  0,                                      !- Y Origin {m}
  -25.6032,                               !- Z Origin {m}
  {0311ec87-cb21-41eb-ad33-63682e3e8207}, !- Building Story Name
  {6457b308-0113-4604-8690-8f24c736ab6a}; !- Thermal Zone Name

OS:Space,
  {8feb38e0-91c4-4354-a667-f5905d619237}, !- Handle
  EL1 North Perim Spc (T.N23),            !- Name
  {f35b22f1-af66-4882-99e4-271aef07eaa2}, !- Space Type Name
  ,                                       !- Default Construction Set Name
  ,                                       !- Default Schedule Set Name
  -0,                                     !- Direction of Relative North {deg}
  0,                                      !- X Origin {m}
  0,                                      !- Y Origin {m}
  -25.6032,                               !- Z Origin {m}
  {0311ec87-cb21-41eb-ad33-63682e3e8207}, !- Building Story Name
  {f9fddd9c-9be9-4805-accc-651bfcd0af4a}; !- Thermal Zone Name

OS:Space,
  {935891a9-9444-4663-8fc3-8d406688b543}, !- Handle
  EL1 West Perim Spc (T.W24),             !- Name
  {f35b22f1-af66-4882-99e4-271aef07eaa2}, !- Space Type Name
  ,                                       !- Default Construction Set Name
  ,                                       !- Default Schedule Set Name
  -0,                                     !- Direction of Relative North {deg}
  0,                                      !- X Origin {m}
  0,                                      !- Y Origin {m}
  -25.6032,                               !- Z Origin {m}
  {0311ec87-cb21-41eb-ad33-63682e3e8207}, !- Building Story Name
  {5ea51ae2-6c87-4fd8-8b0a-9244f0b5c445}; !- Thermal Zone Name

OS:Space,
  {e305a7ed-0ca0-4001-8b10-354cb6a22fca}, !- Handle
  EL1 Core Spc (T.C25),                   !- Name
  {5e3fa265-0065-479f-911e-999552d05f79}, !- Space Type Name
  ,                                       !- Default Construction Set Name
  ,                                       !- Default Schedule Set Name
  -0,                                     !- Direction of Relative North {deg}
  0,                                      !- X Origin {m}
  0,                                      !- Y Origin {m}
  -25.6032,                               !- Z Origin {m}
  {0311ec87-cb21-41eb-ad33-63682e3e8207}, !- Building Story Name
  {8ab6c553-cf23-43ce-a441-77770beebb97}; !- Thermal Zone Name

OS:Space,
  {6a5ad3d2-4577-4876-9127-ddb1c70a56ca}, !- Handle
  EL1 South Perim Plnm (T.S26),           !- Name
  {197e68ab-195b-4ad3-9452-c3b5ed7c640d}, !- Space Type Name
  ,                                       !- Default Construction Set Name
  ,                                       !- Default Schedule Set Name
  -0,                                     !- Direction of Relative North {deg}
  0,                                      !- X Origin {m}
  0,                                      !- Y Origin {m}
  -25.6032,                               !- Z Origin {m}
  {0311ec87-cb21-41eb-ad33-63682e3e8207}, !- Building Story Name
  {60042308-8d88-4edf-a65b-6306357ceb45}, !- Thermal Zone Name
  No;                                     !- Part of Total Floor Area

OS:Space,
  {4a51d80a-b2f0-478f-bc73-0bb84552a892}, !- Handle
  EL1 East Perim Plnm (T.E27),            !- Name
  {197e68ab-195b-4ad3-9452-c3b5ed7c640d}, !- Space Type Name
  ,                                       !- Default Construction Set Name
  ,                                       !- Default Schedule Set Name
  -0,                                     !- Direction of Relative North {deg}
  0,                                      !- X Origin {m}
  0,                                      !- Y Origin {m}
  -25.6032,                               !- Z Origin {m}
  {0311ec87-cb21-41eb-ad33-63682e3e8207}, !- Building Story Name
  {2491eaae-d297-4ac8-8ca1-bae41d9859ec}, !- Thermal Zone Name
  No;                                     !- Part of Total Floor Area

OS:Space,
  {64d70786-5928-436d-bbec-f8d36462aee8}, !- Handle
  EL1 North Perim Plnm (T.N28),           !- Name
  {197e68ab-195b-4ad3-9452-c3b5ed7c640d}, !- Space Type Name
  ,                                       !- Default Construction Set Name
  ,                                       !- Default Schedule Set Name
  -0,                                     !- Direction of Relative North {deg}
  0,                                      !- X Origin {m}
  0,                                      !- Y Origin {m}
  -25.6032,                               !- Z Origin {m}
  {0311ec87-cb21-41eb-ad33-63682e3e8207}, !- Building Story Name
  {188872da-3b86-463b-b6eb-c1c00f308935}, !- Thermal Zone Name
  No;                                     !- Part of Total Floor Area

OS:Space,
  {bbc763d4-3e7a-43de-ba2c-44cf455da6dc}, !- Handle
  EL1 West Perim Plnm (T.W29),            !- Name
  {197e68ab-195b-4ad3-9452-c3b5ed7c640d}, !- Space Type Name
  ,                                       !- Default Construction Set Name
  ,                                       !- Default Schedule Set Name
  -0,                                     !- Direction of Relative North {deg}
  0,                                      !- X Origin {m}
  0,                                      !- Y Origin {m}
  -25.6032,                               !- Z Origin {m}
  {0311ec87-cb21-41eb-ad33-63682e3e8207}, !- Building Story Name
  {2294a946-6cbe-4db8-829e-7a6d16cb7ae8}, !- Thermal Zone Name
  No;                                     !- Part of Total Floor Area

OS:Space,
  {e45363d4-ba61-426f-b0c5-1eaadf1dc0b4}, !- Handle
  EL1 Core Plnm (T.C30),                  !- Name
  {197e68ab-195b-4ad3-9452-c3b5ed7c640d}, !- Space Type Name
  ,                                       !- Default Construction Set Name
  ,                                       !- Default Schedule Set Name
  -0,                                     !- Direction of Relative North {deg}
  0,                                      !- X Origin {m}
  0,                                      !- Y Origin {m}
  -25.6032,                               !- Z Origin {m}
  {0311ec87-cb21-41eb-ad33-63682e3e8207}, !- Building Story Name
  {75f1fbc6-0950-4db5-a2cd-7242f3ef8b7c}, !- Thermal Zone Name
  No;                                     !- Part of Total Floor Area

OS:Surface,
  {056da1a2-91d6-4bb4-8930-c4e065455eaa}, !- Handle
  EL1 South Wall (G.S1.E1),               !- Name
  Wall,                                   !- Surface Type
  ,                                       !- Construction Name
  {85ee12eb-6afd-43e4-b3f3-1c4b5005b3da}, !- Space Name
  Outdoors,                               !- Outside Boundary Condition
  ,                                       !- Outside Boundary Condition Object
  SunExposed,                             !- Sun Exposure
  WindExposed,                            !- Wind Exposure
  ,                                       !- View Factor to Ground
  ,                                       !- Number of Vertices
  0, 0, 2.7432,                           !- X,Y,Z Vertex 1 {m}
  0, 0, 0,                                !- X,Y,Z Vertex 2 {m}
  49.3776, 0, 0,                          !- X,Y,Z Vertex 3 {m}
  49.3776, 0, 2.7432;                     !- X,Y,Z Vertex 4 {m}

OS:SubSurface,
  {5ed31ca6-0cd8-46bf-a055-9fec5549a1cb}, !- Handle
  EL1 South Win (G.S1.E1.W1),             !- Name
  FixedWindow,                            !- Sub Surface Type
  ,                                       !- Construction Name
  {056da1a2-91d6-4bb4-8930-c4e065455eaa}, !- Surface Name
  ,                                       !- Outside Boundary Condition Object
  ,                                       !- View Factor to Ground
  ,                                       !- Frame and Divider Name
  ,                                       !- Multiplier
  ,                                       !- Number of Vertices
  5.95935816, 0, 2.505456,                !- X,Y,Z Vertex 1 {m}
  5.95935816, 0, 0.9144,                  !- X,Y,Z Vertex 2 {m}
  43.41836376, 0, 0.9144,                 !- X,Y,Z Vertex 3 {m}
  43.41836376, 0, 2.505456;               !- X,Y,Z Vertex 4 {m}

OS:Surface,
  {2efbb5b5-b604-4a28-b04d-7b8a47e971e8}, !- Handle
  EL1 NE Wall (G.S1.I1),                  !- Name
  Wall,                                   !- Surface Type
  ,                                       !- Construction Name
  {85ee12eb-6afd-43e4-b3f3-1c4b5005b3da}, !- Space Name
  Surface,                                !- Outside Boundary Condition
  {32f7a3e5-e923-48fd-9b3d-52d761683205}, !- Outside Boundary Condition Object
  NoSun,                                  !- Sun Exposure
  NoWind,                                 !- Wind Exposure
  ,                                       !- View Factor to Ground
  ,                                       !- Number of Vertices
  49.3776, 0, 2.7432,                     !- X,Y,Z Vertex 1 {m}
  49.3776, 0, 0,                          !- X,Y,Z Vertex 2 {m}
  44.8056, 4.572, 0,                      !- X,Y,Z Vertex 3 {m}
  44.8056, 4.572, 2.7432;                 !- X,Y,Z Vertex 4 {m}

OS:Surface,
  {32f7a3e5-e923-48fd-9b3d-52d761683205}, !- Handle
  EL1 NE Wall (G.S1.I1)-mirror,           !- Name
  Wall,                                   !- Surface Type
  ,                                       !- Construction Name
  {52e0e420-0112-4b9f-a136-3d91870b8e14}, !- Space Name
  Surface,                                !- Outside Boundary Condition
  {2efbb5b5-b604-4a28-b04d-7b8a47e971e8}, !- Outside Boundary Condition Object
  NoSun,                                  !- Sun Exposure
  NoWind,                                 !- Wind Exposure
  ,                                       !- View Factor to Ground
  ,                                       !- Number of Vertices
  44.8056, 4.572, 2.7432,                 !- X,Y,Z Vertex 1 {m}
  44.8056, 4.572, 0,                      !- X,Y,Z Vertex 2 {m}
  49.3776, 0, 0,                          !- X,Y,Z Vertex 3 {m}
  49.3776, 0, 2.7432;                     !- X,Y,Z Vertex 4 {m}

OS:Surface,
  {391ce257-7a1c-4076-9980-2e980aad7f3e}, !- Handle