
OS:Version,
  {aad028e1-fa51-469b-bf99-01d5491fb15a}, !- Handle
  3.3.0;                                  !- Version Identifier

OS:YearDescription,
  {22da133b-29ec-4cef-a911-6b180fad4387}, !- Handle
  ,                                       !- Calendar Year
  Sunday;                                 !- Day of Week for Start Day

OS:WeatherFile,
  {2c2bf1af-af34-45be-8291-a5d1ffaabc53}, !- Handle
  CA_SACRAMENTO-METRO-AP,                 !- City
  -,                                      !- State Province Region
  USA,                                    !- Country
  Custom-724839,                          !- Data Source
  724839,                                 !- WMO Number
  38.7,                                   !- Latitude {deg}
  -121.59,                                !- Longitude {deg}
  -8,                                     !- Time Zone {hr}
  10,                                     !- Elevation {m}
  /home/edr/OS-server/temp_data/analysis_8ea68a78-981e-4286-9ffe-c7110a5ba687/weather/CA_SACRAMENTO-METRO-AP_724839S_TYP12.epw, !- Url
  2CDF73D4,                               !- Checksum
  ,                                       !- Start Date Actual Year
  Sunday;                                 !- Start Day of Week

OS:Site,
  {55c63266-dd18-4a86-acda-7869af078311}, !- Handle
  CA_SACRAMENTO-METRO-AP_-_USA,           !- Name
  38.7,                                   !- Latitude {deg}
  -121.59,                                !- Longitude {deg}
  -8,                                     !- Time Zone {hr}
  10,                                     !- Elevation {m}
  City;                                   !- Terrain

OS:Site:WaterMainsTemperature,
  {44273bed-1877-4fca-8e29-4b37723e38e7}, !- Handle
  Correlation,                            !- Calculation Method
  ,                                       !- Temperature Schedule Name
  16.575,                                 !- Annual Average Outdoor Air Temperature {C}
  17;                                     !- Maximum Difference In Monthly Average Outdoor Air Temperatures {deltaC}

OS:SizingPeriod:DesignDay,
  {af8ccf7d-8cbc-4bda-819a-7acaf9a3599e}, !- Handle
  CA_SACRAMENTO-METRO-AP Ann Clg .4% Condns DB=>MWB 1, !- Name
  38,                                     !- Maximum Dry-Bulb Temperature {C}
  18.1,                                   !- Daily Dry-Bulb Temperature Range {deltaC}
  101205,                                 !- Barometric Pressure {Pa}
  2.9,                                    !- Wind Speed {m/s}
  180,                                    !- Wind Direction {deg}
  ,                                       !- Sky Clearness
  No,                                     !- Rain Indicator
  No,                                     !- Snow Indicator
  21,                                     !- Day of Month
  7,                                      !- Month
  SummerDesignDay,                        !- Day Type
  No,                                     !- Daylight Saving Time Indicator
  Wetbulb,                                !- Humidity Condition Type
  ,                                       !- Humidity Condition Day Schedule Name
  21.4,                                   !- Wetbulb or DewPoint at Maximum Dry-Bulb {C}
  ,                                       !- Humidity Ratio at Maximum Dry-Bulb {kgWater/kgDryAir}
  ,                                       !- Enthalpy at Maximum Dry-Bulb {J/kg}
  DefaultMultipliers,                     !- Dry-Bulb Temperature Range Modifier Type
  ,                                       !- Dry-Bulb Temperature Range Modifier Day Schedule Name
  ASHRAETau,                              !- Solar Model Indicator
  ,                                       !- Beam Solar Day Schedule Name
  ,                                       !- Diffuse Solar Day Schedule Name
  0.329,                                  !- ASHRAE Clear Sky Optical Depth for Beam Irradiance {dimensionless}
  2.453;                                  !- ASHRAE Clear Sky Optical Depth for Diffuse Irradiance {dimensionless}

OS:SizingPeriod:DesignDay,
  {b9fb4286-8247-42bb-ac2c-d8e01e905141}, !- Handle
  CA_SACRAMENTO-METRO-AP Ann Clg .4% Condns WB=>MDB 1, !- Name
  35.9,                                   !- Maximum Dry-Bulb Temperature {C}
  18.1,                                   !- Daily Dry-Bulb Temperature Range {deltaC}
  101205,                                 !- Barometric Pressure {Pa}
  2.9,                                    !- Wind Speed {m/s}
  180,                                    !- Wind Direction {deg}
  ,                                       !- Sky Clearness
  No,                                     !- Rain Indicator
  No,                                     !- Snow Indicator
  21,                                     !- Day of Month
  7,                                      !- Month
  SummerDesignDay,                        !- Day Type
  No,                                     !- Daylight Saving Time Indicator
  Wetbulb,                                !- Humidity Condition Type
  ,                                       !- Humidity Condition Day Schedule Name
  22.9,                                   !- Wetbulb or DewPoint at Maximum Dry-Bulb {C}
  ,                                       !- Humidity Ratio at Maximum Dry-Bulb {kgWater/kgDryAir}
  ,                                       !- Enthalpy at Maximum Dry-Bulb {J/kg}
  DefaultMultipliers,                     !- Dry-Bulb Temperature Range Modifier Type
  ,                                       !- Dry-Bulb Temperature Range Modifier Day Schedule Name
  ASHRAETau,                              !- Solar Model Indicator
  ,                                       !- Beam Solar Day Schedule Name
  ,                                       !- Diffuse Solar Day Schedule Name
  0.329,                                  !- ASHRAE Clear Sky Optical Depth for Beam Irradiance {dimensionless}
  2.453;                                  !- ASHRAE Clear Sky Optical Depth for Diffuse Irradiance {dimensionless}

OS:SizingPeriod:DesignDay,
  {70957d35-e8f6-46c9-8e22-b406c8983910}, !- Handle
  CA_SACRAMENTO-METRO-AP Ann Htg 99.6% Condns DB 1, !- Name
  -0.9,                                   !- Maximum Dry-Bulb Temperature {C}
  0,                                      !- Daily Dry-Bulb Temperature Range {deltaC}
  101205,                                 !- Barometric Pressure {Pa}
  1.5,                                    !- Wind Speed {m/s}
  320,                                    !- Wind Direction {deg}
  0,                                      !- Sky Clearness
  No,                                     !- Rain Indicator
  No,                                     !- Snow Indicator
  21,                                     !- Day of Month
  12,                                     !- Month
  WinterDesignDay,                        !- Day Type
  No,                                     !- Daylight Saving Time Indicator
  Wetbulb,                                !- Humidity Condition Type
  ,                                       !- Humidity Condition Day Schedule Name
  -0.9,                                   !- Wetbulb or DewPoint at Maximum Dry-Bulb {C}
  ,                                       !- Humidity Ratio at Maximum Dry-Bulb {kgWater/kgDryAir}
  ,                                       !- Enthalpy at Maximum Dry-Bulb {J/kg}
  DefaultMultipliers,                     !- Dry-Bulb Temperature Range Modifier Type
  ,                                       !- Dry-Bulb Temperature Range Modifier Day Schedule Name
  ASHRAEClearSky;                         !- Solar Model Indicator

OS:ClimateZones,
  {9678806b-072f-4323-a1ef-ffd85874a682}, !- Handle
  CEC,                                    !- Climate Zone Institution Name 1
  California Climate Zone Descriptions,   !- Climate Zone Document Name 1
  1995,                                   !- Climate Zone Document Year 1
  12;                                     !- Climate Zone Value 1

OS:Building,
  {d9ce0cbd-f08d-4ffe-9910-db60567be83c}, !- Handle
  DEER 2015|OfS,                          !- Name
  ,                                       !- Building Sector Type
  12,                                     !- North Axis {deg}
  ,                                       !- Nominal Floor to Floor Height {m}
  ,                                       !- Space Type Name
  {4084183b-2a77-461f-b876-f7fb74b59b7f}, !- Default Construction Set Name
  {e16bb0a8-591f-4ca2-9481-3ddff146402b}, !- Default Schedule Set Name
  ,                                       !- Standards Number of Stories
  ,                                       !- Standards Number of Above Ground Stories
  ,                                       !- Standards Template
  OfS;                                    !- Standards Building Type

OS:SpaceType,
  {0634cc9b-7299-41d7-a7cf-8043b335602f}, !- Handle
  OfS Hall - DEER 2015,                   !- Name
  ,                                       !- Default Construction Set Name
  {d2c394d8-933e-4462-933a-840f72b808bf}, !- Default Schedule Set Name
  ,                                       !- Group Rendering Name
  {f049c749-ffbb-414c-955e-5dd291aecda1}, !- Design Specification Outdoor Air Object Name
  ,                                       !- Standards Template
  OfS,                                    !- Standards Building Type
  Hall;                                   !- Standards Space Type

OS:SpaceType,
  {a45c81e5-f668-4021-b9a0-ec811be6d9b7}, !- Handle
  OfS OfficeSmall - DEER 2015,            !- Name
  ,                                       !- Default Construction Set Name
  {e282c037-1383-4707-aeb0-8c7b98691f80}, !- Default Schedule Set Name
  ,                                       !- Group Rendering Name
  {daa8163b-613a-4b94-8b22-19c77d1a0da6}, !- Design Specification Outdoor Air Object Name
  ,                                       !- Standards Template
  OfS,                                    !- Standards Building Type
  OfficeSmall;                            !- Standards Space Type

OS:BuildingStory,
  {28578940-7d74-4acf-a4de-f1a0d5267a1b}, !- Handle
  Story Ground,                           !- Name
  0,                                      !- Nominal Z Coordinate {m}
  4.572,                                  !- Nominal Floor to Floor Height {m}
  ,                                       !- Default Construction Set Name
  ,                                       !- Default Schedule Set Name
  ;                                       !- Group Rendering Name

OS:Space,
  {289824ae-f42b-4124-bb23-2f5e64cb8151}, !- Handle
  OfS OfficeSmall A end_a - Story Ground, !- Name
  {a45c81e5-f668-4021-b9a0-ec811be6d9b7}, !- Space Type Name
  ,                                       !- Default Construction Set Name
  ,                                       !- Default Schedule Set Name
  -0,                                     !- Direction of Relative North {deg}
  -50.5453618050163,                      !- X Origin {m}
  -25.2726809025081,                      !- Y Origin {m}
  0,                                      !- Z Origin {m}
  {28578940-7d74-4acf-a4de-f1a0d5267a1b}, !- Building Story Name
  {8dee2ba9-3d74-4a78-8e48-2702cd6b3a56}; !- Thermal Zone Name

OS:Surface,
  {64970da6-cdef-45d2-8c45-b303a9c1c60f}, !- Handle
  Surface 1,                              !- Name
  Floor,                                  !- Surface Type
  ,                                       !- Construction Name
  {289824ae-f42b-4124-bb23-2f5e64cb8151}, !- Space Name
  Ground,                                 !- Outside Boundary Condition
  ,                                       !- Outside Boundary Condition Object
  NoSun,                                  !- Sun Exposure
  NoWind,                                 !- Wind Exposure
  ,                                       !- View Factor to Ground
  ,                                       !- Number of Vertices
  0, 4.9737991503207e-14, 0,              !- X,Y,Z Vertex 1 {m}
  0, 4.57199999999995, 0,                 !- X,Y,Z Vertex 2 {m}
  4.572, 4.57199999999995, 0,             !- X,Y,Z Vertex 3 {m}
  4.572, 4.9737991503207e-14, 0;          !- X,Y,Z Vertex 4 {m}

OS:Surface,
  {7ddb7b5b-2d3d-493c-a7a4-4560158fa8cd}, !- Handle
  Surface 2,                              !- Name
  Wall,                                   !- Surface Type
  ,                                       !- Construction Name
  {289824ae-f42b-4124-bb23-2f5e64cb8151}, !- Space Name
  Outdoors,                               !- Outside Boundary Condition
  ,                                       !- Outside Boundary Condition Object
  SunExposed,                             !- Sun Exposure
  WindExposed,                            !- Wind Exposure
  ,                                       !- View Factor to Ground
  ,                                       !- Number of Vertices
  0, 4.57199999999995, 4.572,             !- X,Y,Z Vertex 1 {m}
  0, 4.57199999999995, 0,                 !- X,Y,Z Vertex 2 {m}
  0, 4.9737991503207e-14, 0,              !- X,Y,Z Vertex 3 {m}
  0, 4.9737991503207e-14, 4.572;          !- X,Y,Z Vertex 4 {m}

OS:Surface,
  {f4f4f587-cd3e-4d22-84c0-221da0b18fde}, !- Handle
  Surface 3,                              !- Name
  Wall,                                   !- Surface Type
  ,                                       !- Construction Name
  {289824ae-f42b-4124-bb23-2f5e64cb8151}, !- Space Name
  Surface,                                !- Outside Boundary Condition
  {7b2f891e-caac-41d0-8911-8de934525844}, !- Outside Boundary Condition Object
  NoSun,                                  !- Sun Exposure
  NoWind,                                 !- Wind Exposure
  ,                                       !- View Factor to Ground
  ,                                       !- Number of Vertices
  4.572, 4.57199999999995, 4.572,         !- X,Y,Z Vertex 1 {m}
  4.572, 4.57199999999995, 0,             !- X,Y,Z Vertex 2 {m}
  0, 4.57199999999995, 0,                 !- X,Y,Z Vertex 3 {m}
  0, 4.57199999999995, 4.572;             !- X,Y,Z Vertex 4 {m}

OS:Surface,
  {d4628c1a-28a5-4ed6-a7fa-c3bf6e276e5c}, !- Handle
  Surface 4,                              !- Name
  Wall,                                   !- Surface Type
  ,                                       !- Construction Name
  {289824ae-f42b-4124-bb23-2f5e64cb8151}, !- Space Name
  Surface,                                !- Outside Boundary Condition
  {8ed6e0d7-d8a3-4450-8390-c35e8764f6e3}, !- Outside Boundary Condition Object
  NoSun,                                  !- Sun Exposure
  NoWind,                                 !- Wind Exposure
  ,                                       !- View Factor to Ground
  ,                                       !- Number of Vertices
  4.572, 4.9737991503207e-14, 4.572,      !- X,Y,Z Vertex 1 {m}
  4.572, 4.9737991503207e-14, 0,          !- X,Y,Z Vertex 2 {m}
  4.572, 4.57199999999995, 0,             !- X,Y,Z Vertex 3 {m}
  4.572, 4.57199999999995, 4.572;         !- X,Y,Z Vertex 4 {m}

OS:Surface,
  {ecdd1b3a-2c77-4746-af5a-241ba7598eec}, !- Handle
  Surface 5,                              !- Name
  Wall,                                   !- Surface Type
  ,                                       !- Construction Name
  {289824ae-f42b-4124-bb23-2f5e64cb8151}, !- Space Name
  Outdoors,                               !- Outside Boundary Condition
  ,                                       !- Outside Boundary Condition Object
  SunExposed,                             !- Sun Exposure
  WindExposed,                            !- Wind Exposure
  ,                                       !- View Factor to Ground
  ,                                       !- Number of Vertices
  0, 4.9737991503207e-14, 4.572,          !- X,Y,Z Vertex 1 {m}
  0, 4.9737991503207e-14, 0,              !- X,Y,Z Vertex 2 {m}
  4.572, 4.9737991503207e-14, 0,          !- X,Y,Z Vertex 3 {m}
  4.572, 4.9737991503207e-14, 4.572;      !- X,Y,Z Vertex 4 {m}

OS:Surface,
  {0fde85d4-6fde-4de7-8e49-b9a3b0ed167c}, !- Handle
  Surface 6,                              !- Name
  RoofCeiling,                            !- Surface Type
  ,                                       !- Construction Name
  {289824ae-f42b-4124-bb23-2f5e64cb8151}, !- Space Name
  Outdoors,                               !- Outside Boundary Condition
  ,                                       !- Outside Boundary Condition Object
  SunExposed,                             !- Sun Exposure
  WindExposed,                            !- Wind Exposure
  ,                                       !- View Factor to Ground
  ,                                       !- Number of Vertices
  4.572, 4.9737991503207e-14, 4.572,      !- X,Y,Z Vertex 1 {m}
  4.572, 4.57199999999995, 4.572,         !- X,Y,Z Vertex 2 {m}
  0, 4.57199999999995, 4.572,             !- X,Y,Z Vertex 3 {m}
  0, 4.9737991503207e-14, 4.572;          !- X,Y,Z Vertex 4 {m}

OS:ThermalZone,
  {8dee2ba9-3d74-4a78-8e48-2702cd6b3a56}, !- Handle
  Zone OfS OfficeSmall A end_a - Story Ground, !- Name
  1,                                      !- Multiplier
  ,                                       !- Ceiling Height {m}
  ,                                       !- Volume {m3}
  ,                                       !- Floor Area {m2}
  ,                                       !- Zone Inside Convection Algorithm
  ,                                       !- Zone Outside Convection Algorithm
  ,                                       !- Zone Conditioning Equipment List Name
  {971a7832-4863-4a41-a7e1-8e8b262e6535}, !- Zone Air Inlet Port List
  {24c923b2-64ee-428a-94ea-adde24ef8b23}, !- Zone Air Exhaust Port List
  {c0c45fff-bab8-42e9-aba0-3a03609390e4}, !- Zone Air Node Name
  {8297d985-aa3a-4df2-85ad-1327d001b1de}, !- Zone Return Air Port List
  ,                                       !- Primary Daylighting Control Name
  ,                                       !- Fraction of Zone Controlled by Primary Daylighting Control
  ,                                       !- Secondary Daylighting Control Name
  ,                                       !- Fraction of Zone Controlled by Secondary Daylighting Control
  ,                                       !- Illuminance Map Name
  ,                                       !- Group Rendering Name
  {dbdb1ead-3144-4f6d-9ef5-5f808cb4275e}, !- Thermostat Name
  No;                                     !- Use Ideal Air Loads

OS:Node,
  {104a7a44-c620-4667-a419-06ffa9fc57d7}, !- Handle
  Zone OfS OfficeSmall A end_a - Story Ground Zone Air Node, !- Name
  {c0c45fff-bab8-42e9-aba0-3a03609390e4}, !- Inlet Port
  ;                                       !- Outlet Port

OS:Connection,
  {c0c45fff-bab8-42e9-aba0-3a03609390e4}, !- Handle
  {8dee2ba9-3d74-4a78-8e48-2702cd6b3a56}, !- Source Object
  11,                                     !- Outlet Port
  {104a7a44-c620-4667-a419-06ffa9fc57d7}, !- Target Object
  2;                                      !- Inlet Port

OS:PortList,
  {971a7832-4863-4a41-a7e1-8e8b262e6535}, !- Handle
  {8dee2ba9-3d74-4a78-8e48-2702cd6b3a56}, !- HVAC Component
  {929d7c2b-7e38-4ab9-a9e2-5b58aac1e415}; !- Port 1

OS:PortList,
  {24c923b2-64ee-428a-94ea-adde24ef8b23}, !- Handle
  {8dee2ba9-3d74-4a78-8e48-2702cd6b3a56}; !- HVAC Component

OS:PortList,
  {8297d985-aa3a-4df2-85ad-1327d001b1de}, !- Handle
  {8dee2ba9-3d74-4a78-8e48-2702cd6b3a56}, !- HVAC Component
  {b433023f-53ff-4b64-96c6-0dc372db0765}; !- Port 1

OS:Sizing:Zone,
  {29b3480f-409f-4231-bd2a-a18511866081}, !- Handle
  {8dee2ba9-3d74-4a78-8e48-2702cd6b3a56}, !- Zone or ZoneList Name
  SupplyAirTemperature,                   !- Zone Cooling Design Supply Air Temperature Input Method
  12.7777777777778,                       !- Zone Cooling Design Supply Air Temperature {C}
  11.11,                                  !- Zone Cooling Design Supply Air Temperature Difference {deltaC}
  SupplyAirTemperature,                   !- Zone Heating Design Supply Air Temperature Input Method
  50.0000000000001,                       !- Zone Heating Design Supply Air Temperature {C}
  11.11,                                  !- Zone Heating Design Supply Air Temperature Difference {deltaC}
  0.0085,                                 !- Zone Cooling Design Supply Air Humidity Ratio {kg-H2O/kg-air}
  0.008,                                  !- Zone Heating Design Supply Air Humidity Ratio {kg-H2O/kg-air}
  ,                                       !- Zone Heating Sizing Factor
  ,                                       !- Zone Cooling Sizing Factor
  DesignDay,                              !- Cooling Design Air Flow Method
  ,                                       !- Cooling Design Air Flow Rate {m3/s}
  ,                                       !- Cooling Minimum Air Flow per Zone Floor Area {m3/s-m2}
  ,                                       !- Cooling Minimum Air Flow {m3/s}
  ,                                       !- Cooling Minimum Air Flow Fraction
  DesignDay,                              !- Heating Design Air Flow Method
  ,                                       !- Heating Design Air Flow Rate {m3/s}
  ,                                       !- Heating Maximum Air Flow per Zone Floor Area {m3/s-m2}
  ,                                       !- Heating Maximum Air Flow {m3/s}
  ,                                       !- Heating Maximum Air Flow Fraction
  No,                                     !- Account for Dedicated Outdoor Air System
  NeutralSupplyAir,                       !- Dedicated Outdoor Air System Control Strategy
  autosize,                               !- Dedicated Outdoor Air Low Setpoint Temperature for Design {C}
  autosize,                               !- Dedicated Outdoor Air High Setpoint Temperature for Design {C}
  ,                                       !- Design Zone Air Distribution Effectiveness in Cooling Mode
  ,                                       !- Design Zone Air Distribution Effectiveness in Heating Mode
  ,                                       !- Design Zone Secondary Recirculation Fraction {dimensionless}
  0.6;                                    !- Design Minimum Zone Ventilation Efficiency {dimensionless}

OS:ZoneHVAC:EquipmentList,
  {0b904872-9012-4dec-9ed2-75074ce497be}, !- Handle
  Zone OfS OfficeSmall A end_a - Story Ground Zone HVAC Equipment List, !- Name
  {8dee2ba9-3d74-4a78-8e48-2702cd6b3a56}, !- Thermal Zone
  ,                                       !- Load Distribution Scheme
  {fc17bc41-6747-4e99-a345-4bfc05bca4c1}, !- Zone Equipment 1
  1,                                      !- Zone Equipment Cooling Sequence 1
  1,                                      !- Zone Equipment Heating or No-Load Sequence 1
  ,                                       !- Zone Equipment Sequential Cooling Fraction Schedule Name 1
  ;                                       !- Zone Equipment Sequential Heating Fraction Schedule Name 1

OS:Space,
  {a255f2c4-b300-4c11-8408-aeb62b1a80bb}, !- Handle
  OfS OfficeSmall B end_a - Story Ground, !- Name
  {a45c81e5-f668-4021-b9a0-ec811be6d9b7}, !- Space Type Name
  ,                                       !- Default Construction Set Name
  ,                                       !- Default Schedule Set Name
  -0,                                     !- Direction of Relative North {deg}
  -50.5453618050163,                      !- X Origin {m}
  -20.7006809025082,                      !- Y Origin {m}
  0,                                      !- Z Origin {m}
  {28578940-7d74-4acf-a4de-f1a0d5267a1b}, !- Building Story Name
  {87cdd138-3084-4c2a-bf18-9b61049a2d5f}; !- Thermal Zone Name

OS:Surface,
  {303dc6a6-3081-4f2b-94df-98ca0c87270b}, !- Handle
  Surface 7,                              !- Name
  Floor,                                  !- Surface Type
  ,                                       !- Construction Name
  {a255f2c4-b300-4c11-8408-aeb62b1a80bb}, !- Space Name
  Ground,                                 !- Outside Boundary Condition
  ,                                       !- Outside Boundary Condition Object
  NoSun,                                  !- Sun Exposure
  NoWind,                                 !- Wind Exposure
  ,                                       !- View Factor to Ground
  ,                                       !- Number of Vertices
  0, -4.9737991503207e-14, 0,             !- X,Y,Z Vertex 1 {m}
  0, 41.4013618050164, 0,                 !- X,Y,Z Vertex 2 {m}
  4.572, 41.4013618050164, 0,             !- X,Y,Z Vertex 3 {m}
  4.572, -4.9737991503207e-14, 0;         !- X,Y,Z Vertex 4 {m}

OS:Surface,
  {b8abe0e3-8887-4781-a51d-bcc016017715}, !- Handle
  Surface 8,                              !- Name
  Wall,                                   !- Surface Type
  ,                                       !- Construction Name
  {a255f2c4-b300-4c11-8408-aeb62b1a80bb}, !- Space Name
  Outdoors,                               !- Outside Boundary Condition
  ,                                       !- Outside Boundary Condition Object
  SunExposed,                             !- Sun Exposure
  WindExposed,                            !- Wind Exposure
  ,                                       !- View Factor to Ground
  ,                                       !- Number of Vertices
  0, 41.4013618050164, 4.572,             !- X,Y,Z Vertex 1 {m}
  0, 41.4013618050164, 0,                 !- X,Y,Z Vertex 2 {m}
  0, -4.9737991503207e-14, 0,             !- X,Y,Z Vertex 3 {m}
  0, -4.9737991503207e-14, 4.572;         !- X,Y,Z Vertex 4 {m}

OS:Surface,
  {49e395c3-805a-470e-a979-f353bf12029a}, !- Handle
  Surface 9,                              !- Name
  Wall,                                   !- Surface Type
  ,                                       !- Construction Name
  {a255f2c4-b300-4c11-8408-aeb62b1a80bb}, !- Space Name
  Surface,                                !- Outside Boundary Condition
  {62724610-d304-4e2b-960f-328cdbb0fac8}, !- Outside Boundary Condition Object
  NoSun,                                  !- Sun Exposure
  NoWind,                                 !- Wind Exposure
  ,                                       !- View Factor to Ground
  ,                                       !- Number of Vertices
  4.572, 41.4013618050164, 4.572,         !- X,Y,Z Vertex 1 {m}
  4.572, 41.4013618050164, 0,             !- X,Y,Z Vertex 2 {m}
  0, 41.4013618050164, 0,                 !- X,Y,Z Vertex 3 {m}
  0, 41.4013618050164, 4.572;             !- X,Y,Z Vertex 4 {m}

OS:Surface,
  {ffedc265-4856-4f2f-8f9c-37c5d2deafd2}, !- Handle
  Surface 10,                             !- Name
  Wall,                                   !- Surface Type
  ,                                       !- Construction Name
  {a255f2c4-b300-4c11-8408-aeb62b1a80bb}, !- Space Name
  Surface,                                !- Outside Boundary Condition
  {e724959a-39be-41cc-85a6-5b66901b3821}, !- Outside Boundary Condition Object
  NoSun,                                  !- Sun Exposure
  NoWind,                                 !- Wind Exposure
  ,                                       !- View Factor to Ground
  ,                                       !- Number of Vertices
  4.572, -4.9737991503207e-14, 4.572,     !- X,Y,Z Vertex 1 {m}
  4.572, -4.9737991503207e-14, 0,         !- X,Y,Z Vertex 2 {m}
  4.572, 41.4013618050164, 0,             !- X,Y,Z Vertex 3 {m}
  4.572, 41.4013618050164, 4.572;         !- X,Y,Z Vertex 4 {m}

OS:Surface,
  {7b2f891e-caac-41d0-8911-8de934525844}, !- Handle
  Surface 11,                             !- Name
  Wall,                                   !- Surface Type
  ,                                       !- Construction Name
  {a255f2c4-b300-4c11-8408-aeb62b1a80bb}, !- Space Name
  Surface,                                !- Outside Boundary Condition
  {f4f4f587-cd3e-4d22-84c0-221da0b18fde}, !- Outside Boundary Condition Object
  NoSun,                                  !- Sun Exposure
  NoWind,                                 !- Wind Exposure
  ,                                       !- View Factor to Ground
  ,                                       !- Number of Vertices
  0, -4.9737991503207e-14, 4.572,         !- X,Y,Z Vertex 1 {m}
  0, -4.9737991503207e-14, 0,             !- X,Y,Z Vertex 2 {m}
  4.572, -4.9737991503207e-14, 0,         !- X,Y,Z Vertex 3 {m}
  4.572, -4.9737991503207e-14, 4.572;     !- X,Y,Z Vertex 4 {m}

OS:Surface,
  {1d14be47-dcb2-4401-ac5a-84256de4a8a8}, !- Handle
  Surface 12,                             !- Name
  RoofCeiling,                            !- Surface Type
  ,                                       !- Construction Name
  {a255f2c4-b300-4c11-8408-aeb62b1a80bb}, !- Space Name
  Outdoors,                               !- Outside Boundary Condition
  ,                                       !- Outside Boundary Condition Object
  SunExposed,                             !- Sun Exposure
  WindExposed,                            !- Wind Exposure
  ,                                       !- View Factor to Ground
  ,                                       !- Number of Vertices
  4.572, -4.9737991503207e-14, 4.572,     !- X,Y,Z Vertex 1 {m}
  4.572, 41.4013618050164, 4.572,         !- X,Y,Z Vertex 2 {m}
  0, 41.4013618050164, 4.572,             !- X,Y,Z Vertex 3 {m}
  0, -4.9737991503207e-14, 4.572;         !- X,Y,Z Vertex 4 {m}

OS:ThermalZone,
  {87cdd138-3084-4c2a-bf18-9b61049a2d5f}, !- Handle
  Zone OfS OfficeSmall B end_a - Story Ground, !- Name
  1,                                      !- Multiplier
  ,                                       !- Ceiling Height {m}
  ,                                       !- Volume {m3}
  ,                                       !- Floor Area {m2}
  ,                                       !- Zone Inside Convection Algorithm
  ,                                       !- Zone Outside Convection Algorithm
  ,                                       !- Zone Conditioning Equipment List Name
  {c38e9490-2072-4bf9-b4f3-25eaabc9ae0c}, !- Zone Air Inlet Port List