
OS:Version,
  {a4086cff-c32e-4882-941c-8fa0609bc670}, !- Handle
  3.3.0;                                  !- Version Identifier

OS:WeatherFile,
  {86358391-dd78-4a27-a891-88bc420e1ab9}, !- Handle
  CA_SACRAMENTO-METRO-AP,                 !- City
  -,                                      !- State Province Region
  USA,                                    !- Country
  Custom-724839,                          !- Data Source
  724839,                                 !- WMO Number
  38.7,                                   !- Latitude {deg}
  -121.59,                                !- Longitude {deg}
  -8,                                     !- Time Zone {hr}
  10,                                     !- Elevation {m}
  /home/edr/koritsu-www/app/Containers/Ruby/weather/CA_SACRAMENTO-METRO-AP_724839S_TYP12.epw, !- Url
  2CDF73D4,                               !- Checksum
  ,                                       !- Start Date Actual Year
  Sunday;                                 !- Start Day of Week

OS:Site,
  {9665e421-7665-472a-b904-6fd94a39b27e}, !- Handle
  CA_SACRAMENTO-METRO-AP_-_USA,           !- Name
  38.7,                                   !- Latitude {deg}
  -121.59,                                !- Longitude {deg}
  -8,                                     !- Time Zone {hr}
  10,                                     !- Elevation {m}
  City;                                   !- Terrain

OS:Site:WaterMainsTemperature,
  {a933700e-834c-420f-ac37-1a008453108a}, !- Handle
  Correlation,                            !- Calculation Method
  ,                                       !- Temperature Schedule Name
  16.575,                                 !- Annual Average Outdoor Air Temperature {C}
  17;                                     !- Maximum Difference In Monthly Average Outdoor Air Temperatures {deltaC}

OS:SizingPeriod:DesignDay,
  {793da624-61ee-4806-8bf2-c6589c854783}, !- Handle
  CA_SACRAMENTO-METRO-AP Ann Clg .4% Condns DB=>MWB 1, !- Name
  38,                                     !- Maximum Dry-Bulb Temperature {C}
  18.1,                                   !- Daily Dry-Bulb Temperature Range {deltaC}
  101205,                                 !- Barometric Pressure {Pa}
  2.9,                                    !- Wind Speed {m/s}
  180,                                    !- Wind Direction {deg}
  ,                                       !- Sky Clearness
  No,                                     !- Rain Indicator
  No,                                     !- Snow Indicator
  21,                                     !- Day of Month
  7,                                      !- Month
  SummerDesignDay,                        !- Day Type
  No,                                     !- Daylight Saving Time Indicator
  Wetbulb,                                !- Humidity Condition Type
  ,                                       !- Humidity Condition Day Schedule Name
  21.4,                                   !- Wetbulb or DewPoint at Maximum Dry-Bulb {C}
  ,                                       !- Humidity Ratio at Maximum Dry-Bulb {kgWater/kgDryAir}
  ,                                       !- Enthalpy at Maximum Dry-Bulb {J/kg}
  DefaultMultipliers,                     !- Dry-Bulb Temperature Range Modifier Type
  ,                                       !- Dry-Bulb Temperature Range Modifier Day Schedule Name
  ASHRAETau,                              !- Solar Model Indicator
  ,                                       !- Beam Solar Day Schedule Name
  ,                                       !- Diffuse Solar Day Schedule Name
  0.329,                                  !- ASHRAE Clear Sky Optical Depth for Beam Irradiance {dimensionless}
  2.453;                                  !- ASHRAE Clear Sky Optical Depth for Diffuse Irradiance {dimensionless}

OS:SizingPeriod:DesignDay,
  {62847248-c509-46a1-b42e-384181a08b28}, !- Handle
  CA_SACRAMENTO-METRO-AP Ann Clg .4% Condns WB=>MDB 1, !- Name
  35.9,                                   !- Maximum Dry-Bulb Temperature {C}
  18.1,                                   !- Daily Dry-Bulb Temperature Range {deltaC}
  101205,                                 !- Barometric Pressure {Pa}
  2.9,                                    !- Wind Speed {m/s}
  180,                                    !- Wind Direction {deg}
  ,                                       !- Sky Clearness
  No,                                     !- Rain Indicator
  No,                                     !- Snow Indicator
  21,                                     !- Day of Month
  7,                                      !- Month
  SummerDesignDay,                        !- Day Type
  No,                                     !- Daylight Saving Time Indicator
  Wetbulb,                                !- Humidity Condition Type
  ,                                       !- Humidity Condition Day Schedule Name
  22.9,                                   !- Wetbulb or DewPoint at Maximum Dry-Bulb {C}
  ,                                       !- Humidity Ratio at Maximum Dry-Bulb {kgWater/kgDryAir}
  ,                                       !- Enthalpy at Maximum Dry-Bulb {J/kg}
  DefaultMultipliers,                     !- Dry-Bulb Temperature Range Modifier Type
  ,                                       !- Dry-Bulb Temperature Range Modifier Day Schedule Name
  ASHRAETau,                              !- Solar Model Indicator
  ,                                       !- Beam Solar Day Schedule Name
  ,                                       !- Diffuse Solar Day Schedule Name
  0.329,                                  !- ASHRAE Clear Sky Optical Depth for Beam Irradiance {dimensionless}
  2.453;                                  !- ASHRAE Clear Sky Optical Depth for Diffuse Irradiance {dimensionless}

OS:SizingPeriod:DesignDay,
  {b329942d-c7b0-411b-82df-fe66974b7824}, !- Handle
  CA_SACRAMENTO-METRO-AP Ann Htg 99.6% Condns DB 1, !- Name
  -0.9,                                   !- Maximum Dry-Bulb Temperature {C}
  0,                                      !- Daily Dry-Bulb Temperature Range {deltaC}
  101205,                                 !- Barometric Pressure {Pa}
  1.5,                                    !- Wind Speed {m/s}
  320,                                    !- Wind Direction {deg}
  0,                                      !- Sky Clearness
  No,                                     !- Rain Indicator
  No,                                     !- Snow Indicator
  21,                                     !- Day of Month
  12,                                     !- Month
  WinterDesignDay,                        !- Day Type
  No,                                     !- Daylight Saving Time Indicator
  Wetbulb,                                !- Humidity Condition Type
  ,                                       !- Humidity Condition Day Schedule Name
  -0.9,                                   !- Wetbulb or DewPoint at Maximum Dry-Bulb {C}
  ,                                       !- Humidity Ratio at Maximum Dry-Bulb {kgWater/kgDryAir}
  ,                                       !- Enthalpy at Maximum Dry-Bulb {J/kg}
  DefaultMultipliers,                     !- Dry-Bulb Temperature Range Modifier Type
  ,                                       !- Dry-Bulb Temperature Range Modifier Day Schedule Name
  ASHRAEClearSky;                         !- Solar Model Indicator

OS:ClimateZones,
  {e2131c19-4e43-459a-a6f8-b00855ca5388}, !- Handle
  CEC,                                    !- Climate Zone Institution Name 1
  California Climate Zone Descriptions,   !- Climate Zone Document Name 1
  1995,                                   !- Climate Zone Document Year 1
  11;                                     !- Climate Zone Value 1

OS:Building,
  {5448bc00-faeb-42e0-a6e8-99763b838311}, !- Handle
  DEER 2015|OfS,                          !- Name
  ,                                       !- Building Sector Type
  ,                                       !- North Axis {deg}
  ,                                       !- Nominal Floor to Floor Height {m}
  ,                                       !- Space Type Name
  {5ee87f8c-b2d1-42bc-831b-59998cd3ca29}, !- Default Construction Set Name
  ,                                       !- Default Schedule Set Name
  ,                                       !- Standards Number of Stories
  ,                                       !- Standards Number of Above Ground Stories
  ,                                       !- Standards Template
  OfS;                                    !- Standards Building Type

OS:SpaceType,
  {aa143981-b50b-4800-98b1-433e970dc5a5}, !- Handle
  OfS Hall - DEER 2015,                   !- Name
  ,                                       !- Default Construction Set Name
  {eadd97dc-f535-48c7-a714-eb580bef654a}, !- Default Schedule Set Name
  ,                                       !- Group Rendering Name
  {5391b120-29c6-4757-844d-4cd802aa69e4}, !- Design Specification Outdoor Air Object Name
  ,                                       !- Standards Template
  OfS,                                    !- Standards Building Type
  Hall;                                   !- Standards Space Type

OS:SpaceType,
  {9ae44d13-2065-4c0e-b4c1-d26c96500b65}, !- Handle
  OfS OfficeSmall - DEER 2015,            !- Name
  ,                                       !- Default Construction Set Name
  {3ff57fee-a1b4-43e6-b58d-61a85591d90d}, !- Default Schedule Set Name
  ,                                       !- Group Rendering Name
  {db80f8a5-5809-4948-abc0-d57c8ddf2e39}, !- Design Specification Outdoor Air Object Name
  ,                                       !- Standards Template
  OfS,                                    !- Standards Building Type
  OfficeSmall;                            !- Standards Space Type

OS:BuildingStory,
  {7c60a6bb-facf-4d2c-9802-f0c5238ee585}, !- Handle
  Story Ground,                           !- Name
  0,                                      !- Nominal Z Coordinate {m}
  3.6576,                                 !- Nominal Floor to Floor Height {m}
  ,                                       !- Default Construction Set Name
  ,                                       !- Default Schedule Set Name
  ;                                       !- Group Rendering Name

OS:Space,
  {0b0323dc-872f-467a-9c8b-30c307e113db}, !- Handle
  OfS OfficeSmall A end_a - Story Ground, !- Name
  {9ae44d13-2065-4c0e-b4c1-d26c96500b65}, !- Space Type Name
  ,                                       !- Default Construction Set Name
  ,                                       !- Default Schedule Set Name
  -0,                                     !- Direction of Relative North {deg}
  -29.5121330981005,                      !- X Origin {m}
  -19.6747553987337,                      !- Y Origin {m}
  0,                                      !- Z Origin {m}
  {7c60a6bb-facf-4d2c-9802-f0c5238ee585}, !- Building Story Name
  {07dcd0b8-b16d-4571-b311-e2b2e5008249}; !- Thermal Zone Name

OS:Surface,
  {af0158d1-d304-438e-b57f-d30c43ce5cc9}, !- Handle
  Surface 1,                              !- Name
  Floor,                                  !- Surface Type
  ,                                       !- Construction Name
  {0b0323dc-872f-467a-9c8b-30c307e113db}, !- Space Name
  Ground,                                 !- Outside Boundary Condition
  ,                                       !- Outside Boundary Condition Object
  NoSun,                                  !- Sun Exposure
  NoWind,                                 !- Wind Exposure
  ,                                       !- View Factor to Ground
  ,                                       !- Number of Vertices
  2.1316282072803e-14, -2.48689957516035e-14, 0, !- X,Y,Z Vertex 1 {m}
  2.1316282072803e-14, 4.57199999999998, 0, !- X,Y,Z Vertex 2 {m}
  4.57200000000002, 4.57199999999998, 0,  !- X,Y,Z Vertex 3 {m}
  4.57200000000002, -2.48689957516035e-14, 0; !- X,Y,Z Vertex 4 {m}

OS:Surface,
  {01f27808-803b-45d8-be4c-14d9243701df}, !- Handle
  Surface 2,                              !- Name
  Wall,                                   !- Surface Type
  ,                                       !- Construction Name
  {0b0323dc-872f-467a-9c8b-30c307e113db}, !- Space Name
  Outdoors,                               !- Outside Boundary Condition
  ,                                       !- Outside Boundary Condition Object
  SunExposed,                             !- Sun Exposure
  WindExposed,                            !- Wind Exposure
  ,                                       !- View Factor to Ground
  ,                                       !- Number of Vertices
  2.1316282072803e-14, 4.57199999999998, 3.6576, !- X,Y,Z Vertex 1 {m}
  2.1316282072803e-14, 4.57199999999998, 0, !- X,Y,Z Vertex 2 {m}
  2.1316282072803e-14, -2.48689957516035e-14, 0, !- X,Y,Z Vertex 3 {m}
  2.1316282072803e-14, -2.48689957516035e-14, 3.6576; !- X,Y,Z Vertex 4 {m}

OS:Surface,
  {53680716-e136-45c8-ad77-5c71768ab316}, !- Handle
  Surface 3,                              !- Name
  Wall,                                   !- Surface Type
  ,                                       !- Construction Name
  {0b0323dc-872f-467a-9c8b-30c307e113db}, !- Space Name
  Surface,                                !- Outside Boundary Condition
  {e29b26dc-c125-4e31-a3cd-8554e979de48}, !- Outside Boundary Condition Object
  NoSun,                                  !- Sun Exposure
  NoWind,                                 !- Wind Exposure
  ,                                       !- View Factor to Ground
  ,                                       !- Number of Vertices
  4.57200000000002, 4.57199999999998, 3.6576, !- X,Y,Z Vertex 1 {m}
  4.57200000000002, 4.57199999999998, 0,  !- X,Y,Z Vertex 2 {m}
  2.1316282072803e-14, 4.57199999999998, 0, !- X,Y,Z Vertex 3 {m}
  2.1316282072803e-14, 4.57199999999998, 3.6576; !- X,Y,Z Vertex 4 {m}

OS:Surface,
  {8b274f8b-273b-4d14-9d7a-f7957510351c}, !- Handle
  Surface 4,                              !- Name
  Wall,                                   !- Surface Type
  ,                                       !- Construction Name
  {0b0323dc-872f-467a-9c8b-30c307e113db}, !- Space Name
  Surface,                                !- Outside Boundary Condition
  {3c392d72-f519-4877-9954-db98ebfdf8cb}, !- Outside Boundary Condition Object
  NoSun,                                  !- Sun Exposure
  NoWind,                                 !- Wind Exposure
  ,                                       !- View Factor to Ground
  ,                                       !- Number of Vertices
  4.57200000000002, -2.48689957516035e-14, 3.6576, !- X,Y,Z Vertex 1 {m}
  4.57200000000002, -2.48689957516035e-14, 0, !- X,Y,Z Vertex 2 {m}
  4.57200000000002, 4.57199999999998, 0,  !- X,Y,Z Vertex 3 {m}
  4.57200000000002, 4.57199999999998, 3.6576; !- X,Y,Z Vertex 4 {m}

OS:Surface,
  {91944b63-9373-465b-a265-0ab7bdc485ab}, !- Handle
  Surface 5,                              !- Name
  Wall,                                   !- Surface Type
  ,                                       !- Construction Name
  {0b0323dc-872f-467a-9c8b-30c307e113db}, !- Space Name
  Outdoors,                               !- Outside Boundary Condition
  ,                                       !- Outside Boundary Condition Object
  SunExposed,                             !- Sun Exposure
  WindExposed,                            !- Wind Exposure
  ,                                       !- View Factor to Ground
  ,                                       !- Number of Vertices
  2.1316282072803e-14, -2.48689957516035e-14, 3.6576, !- X,Y,Z Vertex 1 {m}
  2.1316282072803e-14, -2.48689957516035e-14, 0, !- X,Y,Z Vertex 2 {m}
  4.57200000000002, -2.48689957516035e-14, 0, !- X,Y,Z Vertex 3 {m}
  4.57200000000002, -2.48689957516035e-14, 3.6576; !- X,Y,Z Vertex 4 {m}

OS:Surface,
  {04a91004-1326-444d-afa1-276d3f1ec154}, !- Handle
  Surface 6,                              !- Name
  RoofCeiling,                            !- Surface Type
  ,                                       !- Construction Name
  {0b0323dc-872f-467a-9c8b-30c307e113db}, !- Space Name
  Outdoors,                               !- Outside Boundary Condition
  ,                                       !- Outside Boundary Condition Object
  SunExposed,                             !- Sun Exposure
  WindExposed,                            !- Wind Exposure
  ,                                       !- View Factor to Ground
  ,                                       !- Number of Vertices
  4.57200000000002, -2.48689957516035e-14, 3.6576, !- X,Y,Z Vertex 1 {m}
  4.57200000000002, 4.57199999999998, 3.6576, !- X,Y,Z Vertex 2 {m}
  2.1316282072803e-14, 4.57199999999998, 3.6576, !- X,Y,Z Vertex 3 {m}
  2.1316282072803e-14, -2.48689957516035e-14, 3.6576; !- X,Y,Z Vertex 4 {m}

OS:ThermalZone,
  {07dcd0b8-b16d-4571-b311-e2b2e5008249}, !- Handle
  Zone OfS OfficeSmall A end_a - Story Ground, !- Name
  1,                                      !- Multiplier
  ,                                       !- Ceiling Height {m}
  ,                                       !- Volume {m3}
  ,                                       !- Floor Area {m2}
  ,                                       !- Zone Inside Convection Algorithm
  ,                                       !- Zone Outside Convection Algorithm
  ,                                       !- Zone Conditioning Equipment List Name
  {582efb84-2207-4562-b633-6c942177b41a}, !- Zone Air Inlet Port List
  {982a4ff7-c6e9-4f1a-8aff-45c96a04bff0}, !- Zone Air Exhaust Port List
  {30f36ce6-d8d5-4da3-9dce-372622a620e7}, !- Zone Air Node Name
  {6351b964-f847-4e64-abc8-2e471e2377f5}, !- Zone Return Air Port List
  ,                                       !- Primary Daylighting Control Name
  ,                                       !- Fraction of Zone Controlled by Primary Daylighting Control
  ,                                       !- Secondary Daylighting Control Name
  ,                                       !- Fraction of Zone Controlled by Secondary Daylighting Control
  ,                                       !- Illuminance Map Name
  ,                                       !- Group Rendering Name
  {adb6467a-38c4-44e8-a555-615490f51c0c}, !- Thermostat Name
  No;                                     !- Use Ideal Air Loads

OS:Node,
  {c2c350cb-a9cc-40a9-a45a-61d98b8f1332}, !- Handle
  Zone OfS OfficeSmall A end_a - Story Ground Zone Air Node, !- Name
  {30f36ce6-d8d5-4da3-9dce-372622a620e7}, !- Inlet Port
  ;                                       !- Outlet Port

OS:Connection,
  {30f36ce6-d8d5-4da3-9dce-372622a620e7}, !- Handle
  {07dcd0b8-b16d-4571-b311-e2b2e5008249}, !- Source Object
  11,                                     !- Outlet Port
  {c2c350cb-a9cc-40a9-a45a-61d98b8f1332}, !- Target Object
  2;                                      !- Inlet Port

OS:PortList,
  {582efb84-2207-4562-b633-6c942177b41a}, !- Handle
  {07dcd0b8-b16d-4571-b311-e2b2e5008249}, !- HVAC Component
  {952faa8d-fd01-4df9-80a4-467cb5be7308}, !- Port 1
  {fadf927a-1219-4db8-92c5-516b63138b71}; !- Port 2

OS:PortList,
  {982a4ff7-c6e9-4f1a-8aff-45c96a04bff0}, !- Handle
  {07dcd0b8-b16d-4571-b311-e2b2e5008249}, !- HVAC Component
  {7a1c0d81-435d-43b8-9b8d-ed0d19649274}; !- Port 1

OS:PortList,
  {6351b964-f847-4e64-abc8-2e471e2377f5}, !- Handle
  {07dcd0b8-b16d-4571-b311-e2b2e5008249}, !- HVAC Component
  {75894ee1-4f15-4891-aaf2-c1a2cd05ba0b}; !- Port 1

OS:Sizing:Zone,
  {478c5e81-0cf4-45e1-9394-c6a8633d9430}, !- Handle
  {07dcd0b8-b16d-4571-b311-e2b2e5008249}, !- Zone or ZoneList Name
  SupplyAirTemperature,                   !- Zone Cooling Design Supply Air Temperature Input Method
  12.7777777777778,                       !- Zone Cooling Design Supply Air Temperature {C}
  11.11,                                  !- Zone Cooling Design Supply Air Temperature Difference {deltaC}
  SupplyAirTemperature,                   !- Zone Heating Design Supply Air Temperature Input Method
  40.0000000000001,                       !- Zone Heating Design Supply Air Temperature {C}
  11.11,                                  !- Zone Heating Design Supply Air Temperature Difference {deltaC}
  0.0085,                                 !- Zone Cooling Design Supply Air Humidity Ratio {kg-H2O/kg-air}
  0.008,                                  !- Zone Heating Design Supply Air Humidity Ratio {kg-H2O/kg-air}
  ,                                       !- Zone Heating Sizing Factor
  ,                                       !- Zone Cooling Sizing Factor
  DesignDay,                              !- Cooling Design Air Flow Method
  ,                                       !- Cooling Design Air Flow Rate {m3/s}
  ,                                       !- Cooling Minimum Air Flow per Zone Floor Area {m3/s-m2}
  ,                                       !- Cooling Minimum Air Flow {m3/s}
  ,                                       !- Cooling Minimum Air Flow Fraction
  DesignDay,                              !- Heating Design Air Flow Method
  ,                                       !- Heating Design Air Flow Rate {m3/s}
  ,                                       !- Heating Maximum Air Flow per Zone Floor Area {m3/s-m2}
  ,                                       !- Heating Maximum Air Flow {m3/s}
  ,                                       !- Heating Maximum Air Flow Fraction
  Yes,                                    !- Account for Dedicated Outdoor Air System
  NeutralSupplyAir,                       !- Dedicated Outdoor Air System Control Strategy
  15.5555555555556,                       !- Dedicated Outdoor Air Low Setpoint Temperature for Design {C}
  21.1111111111111;                       !- Dedicated Outdoor Air High Setpoint Temperature for Design {C}

OS:ZoneHVAC:EquipmentList,
  {f70dd0d9-1e3c-4505-ae6c-d317623c1d00}, !- Handle
  Zone OfS OfficeSmall A end_a - Story Ground Zone HVAC Equipment List, !- Name
  {07dcd0b8-b16d-4571-b311-e2b2e5008249}, !- Thermal Zone
  ,                                       !- Load Distribution Scheme
  {2ee2e992-a7a2-40ff-bd78-136ec6c4a992}, !- Zone Equipment 1
  1,                                      !- Zone Equipment Cooling Sequence 1
  1,                                      !- Zone Equipment Heating or No-Load Sequence 1
  {0d0dddb8-f197-4961-afd3-a2fd9fbabcba}, !- Zone Equipment Sequential Cooling Fraction Schedule Name 1
  {2d1e3d72-e57c-437f-935d-3352dbef2c4c}, !- Zone Equipment Sequential Heating Fraction Schedule Name 1
  {73f8f92c-1afb-438d-aa70-6d34e33a6871}, !- Zone Equipment 2
  2,                                      !- Zone Equipment Cooling Sequence 2
  2,                                      !- Zone Equipment Heating or No-Load Sequence 2
  ,                                       !- Zone Equipment Sequential Cooling Fraction Schedule Name 2
  ;                                       !- Zone Equipment Sequential Heating Fraction Schedule Name 2

OS:Space,
  {1a691b54-9aa2-4e55-96f2-0b3f75982744}, !- Handle
  OfS OfficeSmall B end_a - Story Ground, !- Name
  {9ae44d13-2065-4c0e-b4c1-d26c96500b65}, !- Space Type Name
  ,                                       !- Default Construction Set Name
  ,                                       !- Default Schedule Set Name
  -0,                                     !- Direction of Relative North {deg}
  -29.5121330981005,                      !- X Origin {m}
  -15.1027553987337,                      !- Y Origin {m}
  0,                                      !- Z Origin {m}
  {7c60a6bb-facf-4d2c-9802-f0c5238ee585}, !- Building Story Name
  {0f739a05-beee-4955-bfed-f4b39ab374d1}; !- Thermal Zone Name

OS:Surface,
  {30cd3bc8-e623-4de6-8534-74f289a5b21b}, !- Handle
  Surface 7,                              !- Name
  Floor,                                  !- Surface Type
  ,                                       !- Construction Name
  {1a691b54-9aa2-4e55-96f2-0b3f75982744}, !- Space Name
  Ground,                                 !- Outside Boundary Condition
  ,                                       !- Outside Boundary Condition Object
  NoSun,                                  !- Sun Exposure
  NoWind,                                 !- Wind Exposure
  ,                                       !- View Factor to Ground
  ,                                       !- Number of Vertices
  2.1316282072803e-14, -2.30926389122033e-14, 0, !- X,Y,Z Vertex 1 {m}
  2.1316282072803e-14, 30.2055107974674, 0, !- X,Y,Z Vertex 2 {m}
  4.57200000000002, 30.2055107974674, 0,  !- X,Y,Z Vertex 3 {m}
  4.57200000000002, -2.30926389122033e-14, 0; !- X,Y,Z Vertex 4 {m}

OS:Surface,
  {f069e0bd-74c3-42ee-bee7-0c61b21aa0d0}, !- Handle
  Surface 8,                              !- Name
  Wall,                                   !- Surface Type
  ,                                       !- Construction Name
  {1a691b54-9aa2-4e55-96f2-0b3f75982744}, !- Space Name
  Outdoors,                               !- Outside Boundary Condition
  ,                                       !- Outside Boundary Condition Object
  SunExposed,                             !- Sun Exposure
  WindExposed,                            !- Wind Exposure
  ,                                       !- View Factor to Ground
  ,                                       !- Number of Vertices
  2.1316282072803e-14, 30.2055107974674, 3.6576, !- X,Y,Z Vertex 1 {m}
  2.1316282072803e-14, 30.2055107974674, 0, !- X,Y,Z Vertex 2 {m}
  2.1316282072803e-14, -2.30926389122033e-14, 0, !- X,Y,Z Vertex 3 {m}
  2.1316282072803e-14, -2.30926389122033e-14, 3.6576; !- X,Y,Z Vertex 4 {m}

OS:Surface,
  {d7343c25-3f0e-4a45-8158-6b8ca23c03b0}, !- Handle
  Surface 9,                              !- Name
  Wall,                                   !- Surface Type
  ,                                       !- Construction Name
  {1a691b54-9aa2-4e55-96f2-0b3f75982744}, !- Space Name
  Surface,                                !- Outside Boundary Condition
  {6dfdae38-e6db-4d75-af53-ea4dfa99686a}, !- Outside Boundary Condition Object
  NoSun,                                  !- Sun Exposure
  NoWind,                                 !- Wind Exposure
  ,                                       !- View Factor to Ground
  ,                                       !- Number of Vertices
  4.57200000000002, 30.2055107974674, 3.6576, !- X,Y,Z Vertex 1 {m}
  4.57200000000002, 30.2055107974674, 0,  !- X,Y,Z Vertex 2 {m}
  2.1316282072803e-14, 30.2055107974674, 0, !- X,Y,Z Vertex 3 {m}
  2.1316282072803e-14, 30.2055107974674, 3.6576; !- X,Y,Z Vertex 4 {m}

OS:Surface,
  {93077254-6db1-4fbb-bb55-b48286d2fc7d}, !- Handle
  Surface 10,                             !- Name
  Wall,                                   !- Surface Type
  ,                                       !- Construction Name
  {1a691b54-9aa2-4e55-96f2-0b3f75982744}, !- Space Name
  Surface,                                !- Outside Boundary Condition
  {0e6e6116-089d-4180-8179-71887b7a9a0a}, !- Outside Boundary Condition Object
  NoSun,                                  !- Sun Exposure
  NoWind,                                 !- Wind Exposure
  ,                                       !- View Factor to Ground
  ,                                       !- Number of Vertices
  4.57200000000002, -2.30926389122033e-14, 3.6576, !- X,Y,Z Vertex 1 {m}
  4.57200000000002, -2.30926389122033e-14, 0, !- X,Y,Z Vertex 2 {m}
  4.57200000000002, 30.2055107974674, 0,  !- X,Y,Z Vertex 3 {m}
  4.57200000000002, 30.2055107974674, 3.6576; !- X,Y,Z Vertex 4 {m}

OS:Surface,
  {e29b26dc-c125-4e31-a3cd-8554e979de48}, !- Handle
  Surface 11,                             !- Name
  Wall,                                   !- Surface Type
  ,                                       !- Construction Name
  {1a691b54-9aa2-4e55-96f2-0b3f75982744}, !- Space Name
  Surface,                                !- Outside Boundary Condition
  {53680716-e136-45c8-ad77-5c71768ab316}, !- Outside Boundary Condition Object
  NoSun,                                  !- Sun Exposure
  NoWind,                                 !- Wind Exposure
  ,                                       !- View Factor to Ground
  ,                                       !- Number of Vertices
  2.1316282072803e-14, -2.30926389122033e-14, 3.6576, !- X,Y,Z Vertex 1 {m}
  2.1316282072803e-14, -2.30926389122033e-14, 0, !- X,Y,Z Vertex 2 {m}
  4.57200000000002, -2.30926389122033e-14, 0, !- X,Y,Z Vertex 3 {m}
  4.57200000000002, -2.30926389122033e-14, 3.6576; !- X,Y,Z Vertex 4 {m}

OS:Surface,
  {943dd584-165f-438a-baa1-36915423110d}, !- Handle
  Surface 12,                             !- Name
  RoofCeiling,                            !- Surface Type
  ,                                       !- Construction Name
  {1a691b54-9aa2-4e55-96f2-0b3f75982744}, !- Space Name
  Outdoors,                               !- Outside Boundary Condition
  ,                                       !- Outside Boundary Condition Object
  SunExposed,                             !- Sun Exposure
  WindExposed,                            !- Wind Exposure
  ,                                       !- View Factor to Ground
  ,                                       !- Number of Vertices
  4.57200000000002, -2.30926389122033e-14, 3.6576, !- X,Y,Z Vertex 1 {m}
  4.57200000000002, 30.2055107974674, 3.6576, !- X,Y,Z Vertex 2 {m}
  2.1316282072803e-14, 30.2055107974674, 3.6576, !- X,Y,Z Vertex 3 {m}
  2.1316282072803e-14, -2.30926389122033e-14, 3.6576; !- X,Y,Z Vertex 4 {m}

OS:ThermalZone,
  {0f739a05-beee-4955-bfed-f4b39ab374d1}, !- Handle
  Zone OfS OfficeSmall B end_a - Story Ground, !- Name
  1,                                      !- Multiplier
  ,                                       !- Ceiling Height {m}
  ,                                       !- Volume {m3}
  ,                                       !- Floor Area {m2}
  ,                                       !- Zone Inside Convection Algorithm
  ,                                       !- Zone Outside Convection Algorithm