!-Generator IDFEditor 1.50
!-Option SortedOrder

Version,
  9.2;                                    !- Version Identifier

!-NOTE: All comments with '!-' are ignored by the IDFEditor and are generated automatically.
!-      Use '!' comments if they need to be retained when using the IDFEditor.

!-   ===========  ALL OBJECTS IN CLASS: VERSION ===========

!-   ===========  ALL OBJECTS IN CLASS: SCHEDULETYPELIMITS ===========

ScheduleTypeLimits,
  Number,                                 !- Name
  0,                                      !- Lower Limit Value {BasedOnField A3}
  5,                                      !- Upper Limit Value {BasedOnField A3}
  Discrete,                               !- Numeric Type
  Dimensionless;                          !- Unit Type

!-   ===========  ALL OBJECTS IN CLASS: SCHEDULE:COMPACT ===========

Schedule:Compact,
  Rate Season Sch,                        !- Name
  Number,                                 !- Schedule Type Limits Name
  Through: 5/31,                          !- Field 1
  For: AllDays,                           !- Field 2
  Until: 24:00,                           !- Field 3
  1,                                      !- Field 4
  Through: 9/30,                          !- Field 5
  For: AllDays,                           !- Field 6
  Until: 24:00,                           !- Field 7
  3,                                      !- Field 8
  Through: 12/31,                         !- Field 9
  For: AllDays,                           !- Field 10
  Until: 24:00,                           !- Field 11
  1;                                      !- Field 12

Schedule:Compact,
  SCE GS TOD Sch,                         !- Name
  Number,                                 !- Schedule Type Limits Name
  Through: 5/31,                          !- Field 1
  For: AllDays,                           !- Field 2
  Until: 8:00,                            !- Field 3
  3,                                      !- Field 4
  Until: 16:00,                           !- Field 5
  2,                                      !- Field 6
  Until: 21:00,                           !- Field 7
  4,                                      !- Field 8
  Until: 24:00,                           !- Field 9
  3,                                      !- Field 10
  Through: 9/30,                          !- Field 11
  For: Weekdays,                          !- Field 12
  Until: 16:00,                           !- Field 13
  3,                                      !- Field 14
  Until: 21:00,                           !- Field 15
  1,                                      !- Field 16
  Until: 24:00,                           !- Field 17
  3,                                      !- Field 18
  For: Weekend,                           !- Field 19
  Until: 16:00,                           !- Field 20
  3,                                      !- Field 21
  Until: 21:00,                           !- Field 22
  4,                                      !- Field 23
  Until: 24:00,                           !- Field 24
  3,                                      !- Field 25
  Through: 12/31,                         !- Field 26
  For: AllDays,                           !- Field 27
  Until: 8:00,                            !- Field 28
  3,                                      !- Field 29
  Until: 16:00,                           !- Field 30
  2,                                      !- Field 31
  Until: 21:00,                           !- Field 32
  4,                                      !- Field 33
  Until: 24:00,                           !- Field 34
  3;                                      !- Field 35

!-   ===========  ALL OBJECTS IN CLASS: UTILITYCOST:TARIFF ===========

UtilityCost:Tariff,
  TOU-GS-1_OpE,                           !- Name
  Electricity:Facility,                   !- Output Meter Name
  kWh,                                    !- Conversion Factor Choice
  ,                                       !- Energy Conversion Factor
  ,                                       !- Demand Conversion Factor
  SCE GS TOD Sch,                         !- Time of Use Period Schedule Name
  Rate Season Sch,                        !- Season Schedule Name
  ,                                       !- Month Schedule Name
  QuarterHour,                            !- Demand Window Length
  13.91,                                  !- Monthly Charge or Variable Name
  ,                                       !- Minimum Monthly Charge or Variable Name
  ,                                       !- Real Time Pricing Charge Schedule Name
  ,                                       !- Customer Baseline Load Schedule Name
  ,                                       !- Group Name
  BuyFromUtility;                         !- Buy Or Sell

UtilityCost:Tariff,
  TOU-GS-2_OpE,                           !- Name
  Electricity:Facility,                   !- Output Meter Name
  kWh,                                    !- Conversion Factor Choice
  ,                                       !- Energy Conversion Factor
  ,                                       !- Demand Conversion Factor
  SCE GS TOD Sch,                         !- Time of Use Period Schedule Name
  Rate Season Sch,                        !- Season Schedule Name
  ,                                       !- Month Schedule Name
  QuarterHour,                            !- Demand Window Length
  158.71,                                 !- Monthly Charge or Variable Name
  ,                                       !- Minimum Monthly Charge or Variable Name
  ,                                       !- Real Time Pricing Charge Schedule Name
  ,                                       !- Customer Baseline Load Schedule Name
  ,                                       !- Group Name
  BuyFromUtility;                         !- Buy Or Sell

UtilityCost:Tariff,
  TOU-GS-3_OpE,                           !- Name
  Electricity:Facility,                   !- Output Meter Name
  kWh,                                    !- Conversion Factor Choice
  ,                                       !- Energy Conversion Factor
  ,                                       !- Demand Conversion Factor
  SCE GS TOD Sch,                         !- Time of Use Period Schedule Name
  Rate Season Sch,                        !- Season Schedule Name
  ,                                       !- Month Schedule Name
  QuarterHour,                            !- Demand Window Length
  383.59,                                 !- Monthly Charge or Variable Name
  ,                                       !- Minimum Monthly Charge or Variable Name
  ,                                       !- Real Time Pricing Charge Schedule Name
  ,                                       !- Customer Baseline Load Schedule Name
  ,                                       !- Group Name
  BuyFromUtility;                         !- Buy Or Sell

UtilityCost:Tariff,
  TOU-GS-8_OpE,                           !- Name
  Electricity:Facility,                   !- Output Meter Name
  kWh,                                    !- Conversion Factor Choice
  ,                                       !- Energy Conversion Factor
  ,                                       !- Demand Conversion Factor
  SCE GS TOD Sch,                         !- Time of Use Period Schedule Name
  Rate Season Sch,                        !- Season Schedule Name
  ,                                       !- Month Schedule Name
  QuarterHour,                            !- Demand Window Length
  571.5,                                  !- Monthly Charge or Variable Name
  ,                                       !- Minimum Monthly Charge or Variable Name
  ,                                       !- Real Time Pricing Charge Schedule Name
  ,                                       !- Customer Baseline Load Schedule Name
  ,                                       !- Group Name
  BuyFromUtility;                         !- Buy Or Sell

UtilityCost:Tariff,
  California_Avg_Commercial_Gas_2020,            !- Name https://www.eia.gov/dnav/ng/ng_pri_sum_dcu_SCA_a.htm
  NaturalGas:Facility,     !- Output Meter Name
  MCF,                   !- Conversion Factor Choice
  ,                        !- Energy Conversion Factor
  ,                        !- Demand Conversion Factor
  ,                        !- Time of Use Period Schedule Name
  ,                        !- Season Schedule Name
  ,                        !- Month Schedule Name
  ,                        !- Demand Window Length
  ;                     !- Monthly Charge or Variable Name

!-   ===========  ALL OBJECTS IN CLASS: UTILITYCOST:QUALIFY ===========

UtilityCost:Qualify,
  SCE TOU-GS-1 Rate E Qualify,            !- Utility Cost Qualify Name
  TOU-GS-1_OpE,                           !- Tariff Name
  TotalDemand,                            !- Variable Name
  Maximum,                                !- Qualify Type
  20,                                     !- Threshold Value or Variable Name
  Annual,                                 !- Season
  Count,                                  !- Threshold Test
  1;                                      !- Number of Months

UtilityCost:Qualify,
  SCE TOU-GS-2 Rate E Qualify Min,        !- Utility Cost Qualify Name
  TOU-GS-2_OpE,                           !- Tariff Name
  TotalDemand,                            !- Variable Name
  Minimum,                                !- Qualify Type
  20,                                     !- Threshold Value or Variable Name
  Annual,                                 !- Season
  Count,                                  !- Threshold Test
  12;                                     !- Number of Months

UtilityCost:Qualify,
  SCE TOU-GS-2 Rate E Qualify Max,        !- Utility Cost Qualify Name
  TOU-GS-2_OpE,                           !- Tariff Name
  TotalDemand,                            !- Variable Name
  Maximum,                                !- Qualify Type
  200,                                    !- Threshold Value or Variable Name
  Annual,                                 !- Season
  Count,                                  !- Threshold Test
  1;                                      !- Number of Months

UtilityCost:Qualify,
  SCE TOU-GS-3 Rate E Qualify Min,        !- Utility Cost Qualify Name
  TOU-GS-3_OpE,                           !- Tariff Name
  TotalDemand,                            !- Variable Name
  Minimum,                                !- Qualify Type
  200,                                    !- Threshold Value or Variable Name
  Annual,                                 !- Season
  Count,                                  !- Threshold Test
  12;                                     !- Number of Months

UtilityCost:Qualify,
  SCE TOU-GS-3 Rate E Qualify Max,        !- Utility Cost Qualify Name
  TOU-GS-3_OpE,                           !- Tariff Name
  TotalDemand,                            !- Variable Name
  Maximum,                                !- Qualify Type
  500,                                    !- Threshold Value or Variable Name
  Annual,                                 !- Season
  Count,                                  !- Threshold Test
  1;                                      !- Number of Months

UtilityCost:Qualify,
  SCE TOU-GS-8 Rate E Qualify Max,        !- Utility Cost Qualify Name
  TOU-GS-8_OpE,                           !- Tariff Name
  TotalDemand,                            !- Variable Name
  Minimum,                                !- Qualify Type
  500,                                    !- Threshold Value or Variable Name
  Annual,                                 !- Season
  Count,                                  !- Threshold Test
  12;                                     !- Number of Months

!-   ===========  ALL OBJECTS IN CLASS: UTILITYCOST:CHARGE:SIMPLE ===========

UtilityCost:Charge:Simple,
  California_Avg_Commercial_Gas_2020_Charge,    !- Utility Cost Charge Simple Name
  California_Avg_Commercial_Gas_2020,            !- Tariff Name
  totalEnergy,             !- Source Variable
  Annual,                  !- Season
  EnergyCharges,           !- Category Variable Name
  9.86;                    !- Cost per Unit Value or Variable Name
  
UtilityCost:Charge:Simple,
  TOU-GS-1_OpE_Peak_Summer_Energy,        !- Utility Cost Charge Simple Name
  TOU-GS-1_OpE,                           !- Tariff Name
  peakEnergy,                             !- Source Variable
  Summer,                                 !- Season
  EnergyCharges,                          !- Category Variable Name
  0.47195;                                !- Cost per Unit Value or Variable Name

UtilityCost:Charge:Simple,
  TOU-GS-1_OpE_MidPeak_Summer_Energy,     !- Utility Cost Charge Simple Name
  TOU-GS-1_OpE,                           !- Tariff Name
  midPeakEnergy,                          !- Source Variable
  Summer,                                 !- Season
  EnergyCharges,                          !- Category Variable Name
  0.27925;                                !- Cost per Unit Value or Variable Name

UtilityCost:Charge:Simple,
  TOU-GS-1_OpE_OffPeak_Summer_Energy,     !- Utility Cost Charge Simple Name
  TOU-GS-1_OpE,                           !- Tariff Name
  offPeakEnergy,                          !- Source Variable
  Summer,                                 !- Season
  EnergyCharges,                          !- Category Variable Name
  0.18467;                                !- Cost per Unit Value or Variable Name

UtilityCost:Charge:Simple,
  TOU-GS-1_OpE_MidPeak_Winter_Energy,     !- Utility Cost Charge Simple Name
  TOU-GS-1_OpE,                           !- Tariff Name
  midPeakEnergy,                          !- Source Variable
  Winter,                                 !- Season
  EnergyCharges,                          !- Category Variable Name
  0.29935;                                !- Cost per Unit Value or Variable Name

UtilityCost:Charge:Simple,
  TOU-GS-1_OpE_OffPeak_Winter_Energy,     !- Utility Cost Charge Simple Name
  TOU-GS-1_OpE,                           !- Tariff Name
  offPeakEnergy,                          !- Source Variable
  Winter,                                 !- Season
  EnergyCharges,                          !- Category Variable Name
  0.17467;                                !- Cost per Unit Value or Variable Name

UtilityCost:Charge:Simple,
  TOU-GS-1_OpE_Shoulder_Winter_Energy,    !- Utility Cost Charge Simple Name
  TOU-GS-1_OpE,                           !- Tariff Name
  shoulderEnergy,                         !- Source Variable
  Winter,                                 !- Season
  EnergyCharges,                          !- Category Variable Name
  0.14196999999999999;                    !- Cost per Unit Value or Variable Name

UtilityCost:Charge:Simple,
  TOU-GS-2_OpE_Peak_Summer_Energy,        !- Utility Cost Charge Simple Name
  TOU-GS-2_OpE,                           !- Tariff Name
  peakEnergy,                             !- Source Variable
  Summer,                                 !- Season
  EnergyCharges,                          !- Category Variable Name
  0.55794;                                !- Cost per Unit Value or Variable Name

UtilityCost:Charge:Simple,
  TOU-GS-2_OpE_MidPeak_Summer_Energy,     !- Utility Cost Charge Simple Name
  TOU-GS-2_OpE,                           !- Tariff Name
  midPeakEnergy,                          !- Source Variable
  Summer,                                 !- Season
  EnergyCharges,                          !- Category Variable Name
  0.20808;                                !- Cost per Unit Value or Variable Name

UtilityCost:Charge:Simple,
  TOU-GS-2_OpE_OffPeak_Summer_Energy,     !- Utility Cost Charge Simple Name
  TOU-GS-2_OpE,                           !- Tariff Name
  offPeakEnergy,                          !- Source Variable
  Summer,                                 !- Season
  EnergyCharges,                          !- Category Variable Name
  0.14740999999999999;                    !- Cost per Unit Value or Variable Name

UtilityCost:Charge:Simple,
  TOU-GS-2_OpE_MidPeak_Winter_Energy,     !- Utility Cost Charge Simple Name
  TOU-GS-2_OpE,                           !- Tariff Name
  midPeakEnergy,                          !- Source Variable
  Winter,                                 !- Season
  EnergyCharges,                          !- Category Variable Name
  0.18806;                                !- Cost per Unit Value or Variable Name

UtilityCost:Charge:Simple,
  TOU-GS-2_OpE_OffPeak_Winter_Energy,     !- Utility Cost Charge Simple Name
  TOU-GS-2_OpE,                           !- Tariff Name
  offPeakEnergy,                          !- Source Variable
  Winter,                                 !- Season
  EnergyCharges,                          !- Category Variable Name
  0.1117;                                 !- Cost per Unit Value or Variable Name

UtilityCost:Charge:Simple,
  TOU-GS-2_OpE_Shoulder_Winter_Energy,    !- Utility Cost Charge Simple Name
  TOU-GS-2_OpE,                           !- Tariff Name
  shoulderEnergy,                         !- Source Variable
  Winter,                                 !- Season
  EnergyCharges,                          !- Category Variable Name
  0.10191;                                !- Cost per Unit Value or Variable Name

UtilityCost:Charge:Simple,
  TOU-GS-2_OpE_Total_Annual_Demand,       !- Utility Cost Charge Simple Name
  TOU-GS-2_OpE,                           !- Tariff Name
  totalDemand,                            !- Source Variable
  Annual,                                 !- Season
  DemandCharges,                          !- Category Variable Name
  9.39;                                   !- Cost per Unit Value or Variable Name

UtilityCost:Charge:Simple,
  TOU-GS-2_OpE_Peak_Summer_Demand,        !- Utility Cost Charge Simple Name
  TOU-GS-2_OpE,                           !- Tariff Name
  peakDemand,                             !- Source Variable
  Summer,                                 !- Season
  DemandCharges,                          !- Category Variable Name
  4.37;                                   !- Cost per Unit Value or Variable Name

UtilityCost:Charge:Simple,
  TOU-GS-2_OpE_MidPeak_Winter_Demand,     !- Utility Cost Charge Simple Name
  TOU-GS-2_OpE,                           !- Tariff Name
  midPeakDemand,                          !- Source Variable
  Winter,                                 !- Season
  DemandCharges,                          !- Category Variable Name
  0.85;                                   !- Cost per Unit Value or Variable Name

UtilityCost:Charge:Simple,
  TOU-GS-3_OpE_Peak_Summer_Energy,        !- Utility Cost Charge Simple Name
  TOU-GS-3_OpE,                           !- Tariff Name
  peakEnergy,                             !- Source Variable
  Summer,                                 !- Season
  EnergyCharges,                          !- Category Variable Name
  0.50883;                                !- Cost per Unit Value or Variable Name

UtilityCost:Charge:Simple,
  TOU-GS-3_OpE_MidPeak_Summer_Energy,     !- Utility Cost Charge Simple Name
  TOU-GS-3_OpE,                           !- Tariff Name
  midPeakEnergy,                          !- Source Variable
  Summer,                                 !- Season
  EnergyCharges,                          !- Category Variable Name
  0.20354;                                !- Cost per Unit Value or Variable Name

UtilityCost:Charge:Simple,
  TOU-GS-3_OpE_OffPeak_Summer_Energy,     !- Utility Cost Charge Simple Name
  TOU-GS-3_OpE,                           !- Tariff Name
  offPeakEnergy,                          !- Source Variable
  Summer,                                 !- Season
  EnergyCharges,                          !- Category Variable Name
  0.13788;                                !- Cost per Unit Value or Variable Name

UtilityCost:Charge:Simple,
  TOU-GS-3_OpE_MidPeak_Winter_Energy,     !- Utility Cost Charge Simple Name
  TOU-GS-3_OpE,                           !- Tariff Name
  midPeakEnergy,                          !- Source Variable
  Winter,                                 !- Season
  EnergyCharges,                          !- Category Variable Name
  0.17051;                                !- Cost per Unit Value or Variable Name

UtilityCost:Charge:Simple,
  TOU-GS-3_OpE_OffPeak_Winter_Energy,     !- Utility Cost Charge Simple Name
  TOU-GS-3_OpE,                           !- Tariff Name
  offPeakEnergy,                          !- Source Variable
  Winter,                                 !- Season
  EnergyCharges,                          !- Category Variable Name
  0.10563;                                !- Cost per Unit Value or Variable Name

UtilityCost:Charge:Simple,
  TOU-GS-3_OpE_Shoulder_Winter_Energy,    !- Utility Cost Charge Simple Name
  TOU-GS-3_OpE,                           !- Tariff Name
  shoulderEnergy,                         !- Source Variable
  Winter,                                 !- Season
  EnergyCharges,                          !- Category Variable Name
  0.09610000000000002;                    !- Cost per Unit Value or Variable Name

UtilityCost:Charge:Simple,
  TOU-GS-3_OpE_Total_Annual_Demand,       !- Utility Cost Charge Simple Name
  TOU-GS-3_OpE,                           !- Tariff Name
  totalDemand,                            !- Source Variable
  Annual,                                 !- Season
  DemandCharges,                          !- Category Variable Name
  10.0;                                   !- Cost per Unit Value or Variable Name

UtilityCost:Charge:Simple,
  TOU-GS-3_OpE_Peak_Summer_Demand,        !- Utility Cost Charge Simple Name
  TOU-GS-3_OpE,                           !- Tariff Name
  peakDemand,                             !- Source Variable
  Summer,                                 !- Season
  DemandCharges,                          !- Category Variable Name
  4.19;                                   !- Cost per Unit Value or Variable Name

UtilityCost:Charge:Simple,
  TOU-GS-3_OpE_MidPeak_Winter_Demand,     !- Utility Cost Charge Simple Name
  TOU-GS-3_OpE,                           !- Tariff Name
  midPeakDemand,                          !- Source Variable
  Winter,                                 !- Season
  DemandCharges,                          !- Category Variable Name
  0.73;                                   !- Cost per Unit Value or Variable Name

UtilityCost:Charge:Simple,
  TOU-GS-8_OpE_Peak_Summer_Energy,        !- Utility Cost Charge Simple Name
  TOU-GS-8_OpE,                           !- Tariff Name
  peakEnergy,                             !- Source Variable
  Summer,                                 !- Season
  EnergyCharges,                          !- Category Variable Name
  0.49808;                                !- Cost per Unit Value or Variable Name

UtilityCost:Charge:Simple,
  TOU-GS-8_OpE_MidPeak_Summer_Energy,     !- Utility Cost Charge Simple Name
  TOU-GS-8_OpE,                           !- Tariff Name
  midPeakEnergy,                          !- Source Variable
  Summer,                                 !- Season
  EnergyCharges,                          !- Category Variable Name
  0.19147;                                !- Cost per Unit Value or Variable Name

UtilityCost:Charge:Simple,
  TOU-GS-8_OpE_OffPeak_Summer_Energy,     !- Utility Cost Charge Simple Name
  TOU-GS-8_OpE,                           !- Tariff Name
  offPeakEnergy,                          !- Source Variable
  Summer,                                 !- Season
  EnergyCharges,                          !- Category Variable Name
  0.12464;                                !- Cost per Unit Value or Variable Name

UtilityCost:Charge:Simple,
  TOU-GS-8_OpE_MidPeak_Winter_Energy,     !- Utility Cost Charge Simple Name
  TOU-GS-8_OpE,                           !- Tariff Name
  midPeakEnergy,                          !- Source Variable
  Winter,                                 !- Season
  EnergyCharges,                          !- Category Variable Name
  0.16244999999999998;                    !- Cost per Unit Value or Variable Name

UtilityCost:Charge:Simple,
  TOU-GS-8_OpE_OffPeak_Winter_Energy,     !- Utility Cost Charge Simple Name
  TOU-GS-8_OpE,                           !- Tariff Name
  offPeakEnergy,                          !- Source Variable
  Winter,                                 !- Season
  EnergyCharges,                          !- Category Variable Name
  0.09608;                                !- Cost per Unit Value or Variable Name

UtilityCost:Charge:Simple,
  TOU-GS-8_OpE_Shoulder_Winter_Energy,    !- Utility Cost Charge Simple Name
  TOU-GS-8_OpE,                           !- Tariff Name
  shoulderEnergy,                         !- Source Variable
  Winter,                                 !- Season
  EnergyCharges,                          !- Category Variable Name
  0.08842;                                !- Cost per Unit Value or Variable Name

UtilityCost:Charge:Simple,
  TOU-GS-8_OpE_Total_Annual_Demand,       !- Utility Cost Charge Simple Name
  TOU-GS-8_OpE,                           !- Tariff Name
  totalDemand,                            !- Source Variable
  Annual,                                 !- Season
  DemandCharges,                          !- Category Variable Name
  10.3;                                   !- Cost per Unit Value or Variable Name

UtilityCost:Charge:Simple,
  TOU-GS-8_OpE_Peak_Summer_Demand,        !- Utility Cost Charge Simple Name
  TOU-GS-8_OpE,                           !- Tariff Name
  peakDemand,                             !- Source Variable
  Summer,                                 !- Season
  DemandCharges,                          !- Category Variable Name
  4.98;                                   !- Cost per Unit Value or Variable Name

UtilityCost:Charge:Simple,
  TOU-GS-8_OpE_MidPeak_Winter_Demand,     !- Utility Cost Charge Simple Name
  TOU-GS-8_OpE,                           !- Tariff Name
  midPeakDemand,                          !- Source Variable
  Winter,                                 !- Season
  DemandCharges,                          !- Category Variable Name
  0.93;                                   !- Cost per Unit Value or Variable Name

