!-Generator IDFEditor 1.50
!-Option SortedOrder

!-NOTE: All comments with '!-' are ignored by the IDFEditor and are generated automatically.
!-      Use '!' comments if they need to be retained when using the IDFEditor.


!-   ===========  ALL OBJECTS IN CLASS: VERSION ===========

Version,
    9.2;                     !- Version Identifier


!-   ===========  ALL OBJECTS IN CLASS: SCHEDULETYPELIMITS ===========

ScheduleTypeLimits,
    Number,                  !- Name
    0,                       !- Lower Limit Value
    5,                       !- Upper Limit Value
    Discrete,                !- Numeric Type
    Dimensionless;           !- Unit Type


!-   ===========  ALL OBJECTS IN CLASS: SCHEDULE:COMPACT ===========

Schedule:Compact,
    Rate Season Sch,         !- Name
    Number,                  !- Schedule Type Limits Name
    Through: 5/31,           !- Field 1
    For: AllDays,            !- Field 2
    Until: 24:00,            !- Field 3
    1,                       !- Field 4
    Through: 9/30,           !- Field 5
    For: AllDays,            !- Field 6
    Until: 24:00,            !- Field 7
    3,                       !- Field 8
    Through: 12/31,          !- Field 9
    For: AllDays,            !- Field 10
    Until: 24:00,            !- Field 11
    1;                       !- Field 12

Schedule:Compact,
    Rate TimeOfDay Sch,      !- Name
    Number,                  !- Schedule Type Limits Name
    Through: 5/31,           !- Field 1
    For: Weekdays,           !- Field 2
    Until: 8:00,             !- Field 3
    4,                       !- Field 4
    Until: 21:00,            !- Field 5
    3,                       !- Field 6
    Until: 24:00,            !- Field 7
    4,                       !- Field 8
    For: Weekend,            !- Field 9
    Until: 24:00,            !- Field 10
    4,                       !- Field 11
    Through: 9/30,           !- Field 12
    For: Weekdays,           !- Field 13
    Until: 8:00,             !- Field 14
    3,                       !- Field 15
    Until: 12:00,            !- Field 16
    2,                       !- Field 17
    Until: 18:00,            !- Field 18
    1,                       !- Field 19
    Until: 23:00,            !- Field 20
    2,                       !- Field 21
    Until: 24:00,            !- Field 22
    3,                       !- Field 23
    For: Weekends,           !- Field 24
    Until: 24:00,            !- Field 25
    3,                       !- Field 26
    Through: 12/31,          !- Field 27
    For: Weekdays,           !- Field 28
    Until: 8:00,             !- Field 29
    4,                       !- Field 30
    Until: 21:00,            !- Field 31
    3,                       !- Field 32
    Until: 24:00,            !- Field 33
    4,                       !- Field 34
    For: Weekends,           !- Field 35
    Until: 24:00,            !- Field 36
    4;                       !- Field 37

Schedule:Compact,
    SCE GS TOD Sch,          !- Name
    Number,                  !- Schedule Type Limits Name
    Through: 5/31,           !- Field 1
    For: AllDays,            !- Field 2
    Until: 8:00,             !- Field 3
     3,                      !- Field 4
    Until: 16:00,            !- Field 5
     4,                      !- Field 6
    Until: 21:00,            !- Field 7
     2,                      !- Field 8
    Until: 24:00,            !- Field 9
     3,                      !- Field 10
    Through: 9/30,           !- Field 11
    For: Weekdays,           !- Field 12
    Until: 16:00,            !- Field 13
     3,                      !- Field 14
    Until: 21:00,            !- Field 15
     1,                      !- Field 16
    Until: 24:00,            !- Field 17
     3,                      !- Field 18
    For: Weekend,            !- Field 19
    Until: 16:00,            !- Field 20
     3,                      !- Field 21
    Until: 21:00,            !- Field 22
     4,                      !- Field 23
    Until: 24:00,            !- Field 24
     3,                      !- Field 25
    Through: 12/31,          !- Field 26
    For: AllDays,
    Until: 8:00,             !- Field 27
     3,                      !- Field 28
    Until: 16:00,            !- Field 29
     4,                      !- Field 30
    Until: 21:00,            !- Field 31
     2,                      !- Field 32
    Until: 24:00,            !- Field 33
     3;                      !- Field 34


!-   ===========  ALL OBJECTS IN CLASS: UTILITYCOST:TARIFF ===========

UtilityCost:Tariff,
    SCE TOU-GS-2 Option B,   !- Name
    Electricity:Facility,    !- Output Meter Name
    kWh,                     !- Conversion Factor Choice
    ,                        !- Energy Conversion Factor
    ,                        !- Demand Conversion Factor
    Rate TimeOfDay Sch,      !- Time of Use Period Schedule Name
    Rate Season Sch,         !- Season Schedule Name
    ,                        !- Month Schedule Name
    QuarterHour,             !- Demand Window Length
    216.43,                  !- Monthly Charge or Variable Name
    ,                        !- Minimum Monthly Charge or Variable Name
    ,                        !- Real Time Pricing Charge Schedule Name
    ,                        !- Customer Baseline Load Schedule Name
    ,                        !- Group Name
    BuyFromUtility;          !- Buy Or Sell


!-   ===========  ALL OBJECTS IN CLASS: UTILITYCOST:QUALIFY ===========

UtilityCost:Qualify,
    SCE TOU Max,             !- Utility Cost Qualify Name
    SCE TOU-GS-2 Option B,   !- Tariff Name
    TotalDemand,             !- Variable Name
    Maximum,                 !- Qualify Type
    200,                     !- Threshold Value or Variable Name
    Annual,                  !- Season
    Consecutive;             !- Threshold Test

UtilityCost:Qualify,
    SCE TOU Min,             !- Utility Cost Qualify Name
    SCE TOU-GS-2 Option B,   !- Tariff Name
    TotalDemand,             !- Variable Name
    Minimum,                 !- Qualify Type
    20,                      !- Threshold Value or Variable Name
    Annual,                  !- Season
    Consecutive;             !- Threshold Test


!-   ===========  ALL OBJECTS IN CLASS: UTILITYCOST:CHARGE:SIMPLE ===========

UtilityCost:Charge:Simple,
    SCE TOU-GS-2 Option B Monthly Demand,  !- Utility Cost Charge Simple Name
    SCE TOU-GS-2 Option B,   !- Tariff Name
    totalDemand,             !- Source Variable
    Annual,                  !- Season
    DemandCharges,           !- Category Variable Name
    15.68;                   !- Cost per Unit Value or Variable Name

UtilityCost:Charge:Simple,
    SCE TOU-GS-2 Option B Shoulder Demand,  !- Utility Cost Charge Simple Name
    SCE TOU-GS-2 Option B,   !- Tariff Name
    ShoulderDemand,          !- Source Variable
    Summer,                  !- Season
    DemandCharges,           !- Category Variable Name
    3.45;                    !- Cost per Unit Value or Variable Name

UtilityCost:Charge:Simple,
    SCE TOU-GS-2 Option B Peak Demand,  !- Utility Cost Charge Simple Name
    SCE TOU-GS-2 Option B,   !- Tariff Name
    PeakDemand,              !- Source Variable
    Summer,                  !- Season
    DemandCharges,           !- Category Variable Name
    19.61;                   !- Cost per Unit Value or Variable Name

UtilityCost:Charge:Simple,
    SCE TOU-GS-2 Option B Summer Peak Energy,  !- Utility Cost Charge Simple Name
    SCE TOU-GS-2 Option B,   !- Tariff Name
    PeakEnergy,              !- Source Variable
    Summer,                  !- Season
    EnergyCharges,           !- Category Variable Name
    0.12133;                 !- Cost per Unit Value or Variable Name

UtilityCost:Charge:Simple,
    SCE TOU-GS-2 Option B Summer Shoulder Energy,  !- Utility Cost Charge Simple Name
    SCE TOU-GS-2 Option B,   !- Tariff Name
    ShoulderEnergy,          !- Source Variable
    Summer,                  !- Season
    EnergyCharges,           !- Category Variable Name
    0.07893;                 !- Cost per Unit Value or Variable Name

UtilityCost:Charge:Simple,
    SCE TOU-GS-2 Option B Summer OffPeak Energy,  !- Utility Cost Charge Simple Name
    SCE TOU-GS-2 Option B,   !- Tariff Name
    OffPeakEnergy,           !- Source Variable
    Summer,                  !- Season
    EnergyCharges,           !- Category Variable Name
    0.05625;                 !- Cost per Unit Value or Variable Name

UtilityCost:Charge:Simple,
    SCE TOU-GS-2 Option B Winter OffPeak Energy,  !- Utility Cost Charge Simple Name
    SCE TOU-GS-2 Option B,   !- Tariff Name
    OffPeakEnergy,           !- Source Variable
    Winter,                  !- Season
    EnergyCharges,           !- Category Variable Name
    0.07517;                 !- Cost per Unit Value or Variable Name

UtilityCost:Charge:Simple,
    SCE TOU-GS-2 Option B Winter MidPeak Energy,  !- Utility Cost Charge Simple Name
    SCE TOU-GS-2 Option B,   !- Tariff Name
    MidPeakEnergy,           !- Source Variable
    Winter,                  !- Season
    EnergyCharges,           !- Category Variable Name
    0.06367;                 !- Cost per Unit Value or Variable Name

