
OS:Version,
  {9545ae2c-408a-43c2-b431-faa49dedb41b}, !- Handle
  3.3.0;                                  !- Version Identifier

OS:YearDescription,
  {26742c83-a91b-4a87-8ba7-49b72a1a9bf6}, !- Handle
  ,                                       !- Calendar Year
  Sunday;                                 !- Day of Week for Start Day

OS:WeatherFile,
  {3f89a64b-7e24-4c0a-9eb6-2f5971611dea}, !- Handle
  San Francisco Intl Ap,                  !- City
  CA,                                     !- State Province Region
  USA,                                    !- Country
  TMY3,                                   !- Data Source
  724940,                                 !- WMO Number
  37.62,                                  !- Latitude {deg}
  -122.4,                                 !- Longitude {deg}
  -8,                                     !- Time Zone {hr}
  2,                                      !- Elevation {m}
  /mnt/openstudio/analysis_d49cb958-3268-49c6-8905-35203907be0d/weather/USA_CA_San.Francisco.Intl.AP.724940_TMY3.epw, !- Url
  EF1A69B0,                               !- Checksum
  ,                                       !- Start Date Actual Year
  Sunday;                                 !- Start Day of Week

OS:Site,
  {7cec0420-0ded-4afd-a907-b96b4911ae7c}, !- Handle
  San Francisco Intl Ap_CA_USA,           !- Name
  37.62,                                  !- Latitude {deg}
  -122.4,                                 !- Longitude {deg}
  -8,                                     !- Time Zone {hr}
  2,                                      !- Elevation {m}
  City;                                   !- Terrain

OS:Site:WaterMainsTemperature,
  {a8a67e32-e255-4465-bb02-1b55485f8dc8}, !- Handle
  Correlation,                            !- Calculation Method
  ,                                       !- Temperature Schedule Name
  13.7833333333333,                       !- Annual Average Outdoor Air Temperature {C}
  7.1;                                    !- Maximum Difference In Monthly Average Outdoor Air Temperatures {deltaC}

OS:SizingPeriod:DesignDay,
  {816e2fb5-b343-47b8-a632-eb8d1922af52}, !- Handle
  San Francisco Intl Ap Ann Clg .4% Condns DB=>MWB 1, !- Name
  28.3,                                   !- Maximum Dry-Bulb Temperature {C}
  8.5,                                    !- Daily Dry-Bulb Temperature Range {deltaC}
  101301,                                 !- Barometric Pressure {Pa}
  5.9,                                    !- Wind Speed {m/s}
  310,                                    !- Wind Direction {deg}
  ,                                       !- Sky Clearness
  No,                                     !- Rain Indicator
  No,                                     !- Snow Indicator
  21,                                     !- Day of Month
  8,                                      !- Month
  SummerDesignDay,                        !- Day Type
  No,                                     !- Daylight Saving Time Indicator
  Wetbulb,                                !- Humidity Condition Type
  ,                                       !- Humidity Condition Day Schedule Name
  17.2,                                   !- Wetbulb or DewPoint at Maximum Dry-Bulb {C}
  ,                                       !- Humidity Ratio at Maximum Dry-Bulb {kgWater/kgDryAir}
  ,                                       !- Enthalpy at Maximum Dry-Bulb {J/kg}
  DefaultMultipliers,                     !- Dry-Bulb Temperature Range Modifier Type
  ,                                       !- Dry-Bulb Temperature Range Modifier Day Schedule Name
  ASHRAETau,                              !- Solar Model Indicator
  ,                                       !- Beam Solar Day Schedule Name
  ,                                       !- Diffuse Solar Day Schedule Name
  0.365,                                  !- ASHRAE Clear Sky Optical Depth for Beam Irradiance {dimensionless}
  2.435;                                  !- ASHRAE Clear Sky Optical Depth for Diffuse Irradiance {dimensionless}

OS:SizingPeriod:DesignDay,
  {b398a157-7988-49d7-af0e-cdf3d4175064}, !- Handle
  San Francisco Intl Ap Ann Clg .4% Condns WB=>MDB 1, !- Name
  25.7,                                   !- Maximum Dry-Bulb Temperature {C}
  8.5,                                    !- Daily Dry-Bulb Temperature Range {deltaC}
  101301,                                 !- Barometric Pressure {Pa}
  5.9,                                    !- Wind Speed {m/s}
  310,                                    !- Wind Direction {deg}
  ,                                       !- Sky Clearness
  No,                                     !- Rain Indicator
  No,                                     !- Snow Indicator
  21,                                     !- Day of Month
  8,                                      !- Month
  SummerDesignDay,                        !- Day Type
  No,                                     !- Daylight Saving Time Indicator
  Wetbulb,                                !- Humidity Condition Type
  ,                                       !- Humidity Condition Day Schedule Name
  18.6,                                   !- Wetbulb or DewPoint at Maximum Dry-Bulb {C}
  ,                                       !- Humidity Ratio at Maximum Dry-Bulb {kgWater/kgDryAir}
  ,                                       !- Enthalpy at Maximum Dry-Bulb {J/kg}
  DefaultMultipliers,                     !- Dry-Bulb Temperature Range Modifier Type
  ,                                       !- Dry-Bulb Temperature Range Modifier Day Schedule Name
  ASHRAETau,                              !- Solar Model Indicator
  ,                                       !- Beam Solar Day Schedule Name
  ,                                       !- Diffuse Solar Day Schedule Name
  0.365,                                  !- ASHRAE Clear Sky Optical Depth for Beam Irradiance {dimensionless}
  2.435;                                  !- ASHRAE Clear Sky Optical Depth for Diffuse Irradiance {dimensionless}

OS:SizingPeriod:DesignDay,
  {6eed469f-6203-4389-84c3-965970ca5bbf}, !- Handle
  San Francisco Intl Ap Ann Htg 99.6% Condns DB 1, !- Name
  3.8,                                    !- Maximum Dry-Bulb Temperature {C}
  0,                                      !- Daily Dry-Bulb Temperature Range {deltaC}
  101301,                                 !- Barometric Pressure {Pa}
  2.2,                                    !- Wind Speed {m/s}
  150,                                    !- Wind Direction {deg}
  0,                                      !- Sky Clearness
  No,                                     !- Rain Indicator
  No,                                     !- Snow Indicator
  21,                                     !- Day of Month
  1,                                      !- Month
  WinterDesignDay,                        !- Day Type
  No,                                     !- Daylight Saving Time Indicator
  Wetbulb,                                !- Humidity Condition Type
  ,                                       !- Humidity Condition Day Schedule Name
  3.8,                                    !- Wetbulb or DewPoint at Maximum Dry-Bulb {C}
  ,                                       !- Humidity Ratio at Maximum Dry-Bulb {kgWater/kgDryAir}
  ,                                       !- Enthalpy at Maximum Dry-Bulb {J/kg}
  DefaultMultipliers,                     !- Dry-Bulb Temperature Range Modifier Type
  ,                                       !- Dry-Bulb Temperature Range Modifier Day Schedule Name
  ASHRAEClearSky;                         !- Solar Model Indicator

OS:ClimateZones,
  {f4a53d68-4ee5-4922-975e-906bb89e0d52}, !- Handle
  CEC,                                    !- Climate Zone Institution Name 1
  California Climate Zone Descriptions,   !- Climate Zone Document Name 1
  1995,                                   !- Climate Zone Document Year 1
  1;                                      !- Climate Zone Value 1

OS:Building,
  {aec4fb6c-e103-4a46-a8dc-1c44d9545160}, !- Handle
  DEER 2017|OfS,                          !- Name
  ,                                       !- Building Sector Type
  12,                                     !- North Axis {deg}
  ,                                       !- Nominal Floor to Floor Height {m}
  ,                                       !- Space Type Name
  {12d984d8-261b-46df-9b18-ba059af885fc}, !- Default Construction Set Name
  {46994c6f-5c95-4c91-a173-b67827709a89}, !- Default Schedule Set Name
  ,                                       !- Standards Number of Stories
  ,                                       !- Standards Number of Above Ground Stories
  ,                                       !- Standards Template
  OfS;                                    !- Standards Building Type

OS:SpaceType,
  {86c48da4-8048-48c8-b9e2-b4c9fac8c1e9}, !- Handle
  OfS Hall - DEER 2017,                   !- Name
  ,                                       !- Default Construction Set Name
  {0238c288-a29f-49fc-874f-f0710a8b2e4f}, !- Default Schedule Set Name
  ,                                       !- Group Rendering Name
  {3991abcc-7c2a-4bb9-8686-cf5a2a5354b5}, !- Design Specification Outdoor Air Object Name
  ,                                       !- Standards Template
  OfS,                                    !- Standards Building Type
  Hall;                                   !- Standards Space Type

OS:SpaceType,
  {94e1f6d5-bb60-4cfb-9766-815ec8b3e7a8}, !- Handle
  OfS OfficeSmall - DEER 2017,            !- Name
  ,                                       !- Default Construction Set Name
  {5a351a50-d54f-412c-85e1-9f5b0aa52d07}, !- Default Schedule Set Name
  ,                                       !- Group Rendering Name
  {e253fcaa-8065-4954-97aa-881bed9711a4}, !- Design Specification Outdoor Air Object Name
  ,                                       !- Standards Template
  OfS,                                    !- Standards Building Type
  OfficeSmall;                            !- Standards Space Type

OS:BuildingStory,
  {23a61507-a96a-4235-a74f-8e6a0225a2d7}, !- Handle
  Story Ground,                           !- Name
  0,                                      !- Nominal Z Coordinate {m}
  4.572,                                  !- Nominal Floor to Floor Height {m}
  ,                                       !- Default Construction Set Name
  ,                                       !- Default Schedule Set Name
  ;                                       !- Group Rendering Name

OS:Space,
  {068bfe3c-c2ba-48b0-a57f-4306e0dbbff8}, !- Handle
  OfS Hall A end_a - Story Ground,        !- Name
  {86c48da4-8048-48c8-b9e2-b4c9fac8c1e9}, !- Space Type Name
  ,                                       !- Default Construction Set Name
  ,                                       !- Default Schedule Set Name
  -0,                                     !- Direction of Relative North {deg}
  -48.1931115409661,                      !- X Origin {m}
  -24.0965557704831,                      !- Y Origin {m}
  0,                                      !- Z Origin {m}
  {23a61507-a96a-4235-a74f-8e6a0225a2d7}, !- Building Story Name
  {72e38644-c12c-4261-9b50-508f462a7649}; !- Thermal Zone Name

OS:Surface,
  {51edf6c7-a1c6-42d8-8985-e9dbbe0f817d}, !- Handle
  Surface 1,                              !- Name
  Floor,                                  !- Surface Type
  ,                                       !- Construction Name
  {068bfe3c-c2ba-48b0-a57f-4306e0dbbff8}, !- Space Name
  Ground,                                 !- Outside Boundary Condition
  ,                                       !- Outside Boundary Condition Object
  NoSun,                                  !- Sun Exposure
  NoWind,                                 !- Wind Exposure
  ,                                       !- View Factor to Ground
  ,                                       !- Number of Vertices
  0, -4.9737991503207e-14, 0,             !- X,Y,Z Vertex 1 {m}
  0, 4.57199999999995, 0,                 !- X,Y,Z Vertex 2 {m}
  4.572, 4.57199999999995, 0,             !- X,Y,Z Vertex 3 {m}
  4.572, -4.9737991503207e-14, 0;         !- X,Y,Z Vertex 4 {m}

OS:Surface,
  {9956de44-b25b-41bd-a6b5-9a61db8e556a}, !- Handle
  Surface 2,                              !- Name
  Wall,                                   !- Surface Type
  ,                                       !- Construction Name
  {068bfe3c-c2ba-48b0-a57f-4306e0dbbff8}, !- Space Name
  Outdoors,                               !- Outside Boundary Condition
  ,                                       !- Outside Boundary Condition Object
  SunExposed,                             !- Sun Exposure
  WindExposed,                            !- Wind Exposure
  ,                                       !- View Factor to Ground
  ,                                       !- Number of Vertices
  0, 4.57199999999995, 4.572,             !- X,Y,Z Vertex 1 {m}
  0, 4.57199999999995, 0,                 !- X,Y,Z Vertex 2 {m}
  0, -4.9737991503207e-14, 0,             !- X,Y,Z Vertex 3 {m}
  0, -4.9737991503207e-14, 4.572;         !- X,Y,Z Vertex 4 {m}

OS:Surface,
  {e7488d7c-8b10-4903-92f8-261942b19c3b}, !- Handle
  Surface 3,                              !- Name
  Wall,                                   !- Surface Type
  ,                                       !- Construction Name
  {068bfe3c-c2ba-48b0-a57f-4306e0dbbff8}, !- Space Name
  Surface,                                !- Outside Boundary Condition
  {280efbf7-676e-4c65-8684-792bcc22437d}, !- Outside Boundary Condition Object
  NoSun,                                  !- Sun Exposure
  NoWind,                                 !- Wind Exposure
  ,                                       !- View Factor to Ground
  ,                                       !- Number of Vertices
  4.572, 4.57199999999995, 4.572,         !- X,Y,Z Vertex 1 {m}
  4.572, 4.57199999999995, 0,             !- X,Y,Z Vertex 2 {m}
  0, 4.57199999999995, 0,                 !- X,Y,Z Vertex 3 {m}
  0, 4.57199999999995, 4.572;             !- X,Y,Z Vertex 4 {m}

OS:Surface,
  {201728eb-5356-43f4-a7d2-18e7aa7b53c7}, !- Handle
  Surface 4,                              !- Name
  Wall,                                   !- Surface Type
  ,                                       !- Construction Name
  {068bfe3c-c2ba-48b0-a57f-4306e0dbbff8}, !- Space Name
  Surface,                                !- Outside Boundary Condition
  {55f9fb9e-41ee-42e2-b0eb-fd06c15ec5e0}, !- Outside Boundary Condition Object
  NoSun,                                  !- Sun Exposure
  NoWind,                                 !- Wind Exposure
  ,                                       !- View Factor to Ground
  ,                                       !- Number of Vertices
  4.572, -4.9737991503207e-14, 4.572,     !- X,Y,Z Vertex 1 {m}
  4.572, -4.9737991503207e-14, 0,         !- X,Y,Z Vertex 2 {m}
  4.572, 4.57199999999995, 0,             !- X,Y,Z Vertex 3 {m}
  4.572, 4.57199999999995, 4.572;         !- X,Y,Z Vertex 4 {m}

OS:Surface,
  {0fbe0e5b-41ee-4648-9a3a-4364612d0178}, !- Handle
  Surface 5,                              !- Name
  Wall,                                   !- Surface Type
  ,                                       !- Construction Name
  {068bfe3c-c2ba-48b0-a57f-4306e0dbbff8}, !- Space Name
  Outdoors,                               !- Outside Boundary Condition
  ,                                       !- Outside Boundary Condition Object
  SunExposed,                             !- Sun Exposure
  WindExposed,                            !- Wind Exposure
  ,                                       !- View Factor to Ground
  ,                                       !- Number of Vertices
  0, -4.9737991503207e-14, 4.572,         !- X,Y,Z Vertex 1 {m}
  0, -4.9737991503207e-14, 0,             !- X,Y,Z Vertex 2 {m}
  4.572, -4.9737991503207e-14, 0,         !- X,Y,Z Vertex 3 {m}
  4.572, -4.9737991503207e-14, 4.572;     !- X,Y,Z Vertex 4 {m}

OS:Surface,
  {9b1d7193-2db5-47bd-bc53-d68c5a3471d8}, !- Handle
  Surface 6,                              !- Name
  RoofCeiling,                            !- Surface Type
  {5d3c95a4-556f-4f1d-b980-8c461b055337}, !- Construction Name
  {068bfe3c-c2ba-48b0-a57f-4306e0dbbff8}, !- Space Name
  Adiabatic,                              !- Outside Boundary Condition
  ,                                       !- Outside Boundary Condition Object
  NoSun,                                  !- Sun Exposure
  NoWind,                                 !- Wind Exposure
  ,                                       !- View Factor to Ground
  ,                                       !- Number of Vertices
  4.572, -4.9737991503207e-14, 4.572,     !- X,Y,Z Vertex 1 {m}
  4.572, 4.57199999999995, 4.572,         !- X,Y,Z Vertex 2 {m}
  0, 4.57199999999995, 4.572,             !- X,Y,Z Vertex 3 {m}
  0, -4.9737991503207e-14, 4.572;         !- X,Y,Z Vertex 4 {m}

OS:ThermalZone,
  {72e38644-c12c-4261-9b50-508f462a7649}, !- Handle
  Zone OfS Hall A end_a - Story Ground,   !- Name
  1,                                      !- Multiplier
  ,                                       !- Ceiling Height {m}
  ,                                       !- Volume {m3}
  ,                                       !- Floor Area {m2}
  ,                                       !- Zone Inside Convection Algorithm
  ,                                       !- Zone Outside Convection Algorithm
  ,                                       !- Zone Conditioning Equipment List Name
  {3fc56edb-43ed-45e9-b817-cee151f360ae}, !- Zone Air Inlet Port List
  {6227c551-6392-429f-8658-af47a174d54f}, !- Zone Air Exhaust Port List
  {cccf2cbf-e435-45de-b0c5-b1e8c3c03425}, !- Zone Air Node Name
  {18cba52c-bd2b-4152-93a0-a441a42d54d5}, !- Zone Return Air Port List
  ,                                       !- Primary Daylighting Control Name
  ,                                       !- Fraction of Zone Controlled by Primary Daylighting Control
  ,                                       !- Secondary Daylighting Control Name
  ,                                       !- Fraction of Zone Controlled by Secondary Daylighting Control
  ,                                       !- Illuminance Map Name
  ,                                       !- Group Rendering Name
  {5a156771-ec67-49bd-981d-3039698ae1af}, !- Thermostat Name
  No;                                     !- Use Ideal Air Loads

OS:Node,
  {5ee7ea94-945b-48c8-9dfd-aeee212ff0de}, !- Handle
  Zone OfS Hall A end_a - Story Ground Zone Air Node, !- Name
  {cccf2cbf-e435-45de-b0c5-b1e8c3c03425}, !- Inlet Port
  ;                                       !- Outlet Port

OS:Connection,
  {cccf2cbf-e435-45de-b0c5-b1e8c3c03425}, !- Handle
  {72e38644-c12c-4261-9b50-508f462a7649}, !- Source Object
  11,                                     !- Outlet Port
  {5ee7ea94-945b-48c8-9dfd-aeee212ff0de}, !- Target Object
  2;                                      !- Inlet Port

OS:PortList,
  {3fc56edb-43ed-45e9-b817-cee151f360ae}, !- Handle
  {72e38644-c12c-4261-9b50-508f462a7649}, !- HVAC Component
  {187929d5-deb0-4b2d-bd69-611fb765fb2f}; !- Port 1

OS:PortList,
  {6227c551-6392-429f-8658-af47a174d54f}, !- Handle
  {72e38644-c12c-4261-9b50-508f462a7649}, !- HVAC Component
  {f23a9ed7-18b1-4aac-bcf3-d339d0957537}; !- Port 1

OS:PortList,
  {18cba52c-bd2b-4152-93a0-a441a42d54d5}, !- Handle
  {72e38644-c12c-4261-9b50-508f462a7649}; !- HVAC Component

OS:Sizing:Zone,
  {09f4ee1d-aba2-40d9-8560-0f89ba145e5d}, !- Handle
  {72e38644-c12c-4261-9b50-508f462a7649}, !- Zone or ZoneList Name
  SupplyAirTemperature,                   !- Zone Cooling Design Supply Air Temperature Input Method
  12.7777777777778,                       !- Zone Cooling Design Supply Air Temperature {C}
  11.11,                                  !- Zone Cooling Design Supply Air Temperature Difference {deltaC}
  SupplyAirTemperature,                   !- Zone Heating Design Supply Air Temperature Input Method
  40.0000000000001,                       !- Zone Heating Design Supply Air Temperature {C}
  11.11,                                  !- Zone Heating Design Supply Air Temperature Difference {deltaC}
  0.0085,                                 !- Zone Cooling Design Supply Air Humidity Ratio {kg-H2O/kg-air}
  0.008,                                  !- Zone Heating Design Supply Air Humidity Ratio {kg-H2O/kg-air}
  ,                                       !- Zone Heating Sizing Factor
  ,                                       !- Zone Cooling Sizing Factor
  DesignDay,                              !- Cooling Design Air Flow Method
  ,                                       !- Cooling Design Air Flow Rate {m3/s}
  ,                                       !- Cooling Minimum Air Flow per Zone Floor Area {m3/s-m2}
  ,                                       !- Cooling Minimum Air Flow {m3/s}
  ,                                       !- Cooling Minimum Air Flow Fraction
  DesignDay,                              !- Heating Design Air Flow Method
  ,                                       !- Heating Design Air Flow Rate {m3/s}
  ,                                       !- Heating Maximum Air Flow per Zone Floor Area {m3/s-m2}
  ,                                       !- Heating Maximum Air Flow {m3/s}
  ,                                       !- Heating Maximum Air Flow Fraction
  No,                                     !- Account for Dedicated Outdoor Air System
  NeutralSupplyAir,                       !- Dedicated Outdoor Air System Control Strategy
  autosize,                               !- Dedicated Outdoor Air Low Setpoint Temperature for Design {C}
  autosize;                               !- Dedicated Outdoor Air High Setpoint Temperature for Design {C}

OS:ZoneHVAC:EquipmentList,
  {7c2bfc52-7a72-4294-b025-1f65dc987dcc}, !- Handle
  Zone OfS Hall A end_a - Story Ground Zone HVAC Equipment List, !- Name
  {72e38644-c12c-4261-9b50-508f462a7649}, !- Thermal Zone
  ,                                       !- Load Distribution Scheme
  {f7b2b91a-5bfd-4d91-acb5-97d06ed47d70}, !- Zone Equipment 1
  1,                                      !- Zone Equipment Cooling Sequence 1
  1,                                      !- Zone Equipment Heating or No-Load Sequence 1
  ,                                       !- Zone Equipment Sequential Cooling Fraction Schedule Name 1
  ;                                       !- Zone Equipment Sequential Heating Fraction Schedule Name 1

OS:Space,
  {670831db-514d-41cf-abf7-403336ce37cc}, !- Handle
  OfS Hall B end_a - Story Ground,        !- Name
  {86c48da4-8048-48c8-b9e2-b4c9fac8c1e9}, !- Space Type Name
  ,                                       !- Default Construction Set Name
  ,                                       !- Default Schedule Set Name
  -0,                                     !- Direction of Relative North {deg}
  -48.1931115409661,                      !- X Origin {m}
  -19.5245557704831,                      !- Y Origin {m}
  0,                                      !- Z Origin {m}
  {23a61507-a96a-4235-a74f-8e6a0225a2d7}, !- Building Story Name
  {8b8a27f7-da38-46fe-842f-b2954b43f533}; !- Thermal Zone Name

OS:Surface,
  {094c7a84-162f-4c75-b2a7-c26166e2fc84}, !- Handle
  Surface 7,                              !- Name
  Floor,                                  !- Surface Type
  ,                                       !- Construction Name
  {670831db-514d-41cf-abf7-403336ce37cc}, !- Space Name
  Ground,                                 !- Outside Boundary Condition
  ,                                       !- Outside Boundary Condition Object
  NoSun,                                  !- Sun Exposure
  NoWind,                                 !- Wind Exposure
  ,                                       !- View Factor to Ground
  ,                                       !- Number of Vertices
  0, -4.9737991503207e-14, 0,             !- X,Y,Z Vertex 1 {m}
  0, 39.0491115409662, 0,                 !- X,Y,Z Vertex 2 {m}
  4.572, 39.0491115409662, 0,             !- X,Y,Z Vertex 3 {m}
  4.572, -4.9737991503207e-14, 0;         !- X,Y,Z Vertex 4 {m}

OS:Surface,
  {01dbbe1a-8bc4-49a6-9781-cef7896c2138}, !- Handle
  Surface 8,                              !- Name
  Wall,                                   !- Surface Type
  ,                                       !- Construction Name
  {670831db-514d-41cf-abf7-403336ce37cc}, !- Space Name
  Outdoors,                               !- Outside Boundary Condition
  ,                                       !- Outside Boundary Condition Object
  SunExposed,                             !- Sun Exposure
  WindExposed,                            !- Wind Exposure
  ,                                       !- View Factor to Ground
  ,                                       !- Number of Vertices
  0, 39.0491115409662, 4.572,             !- X,Y,Z Vertex 1 {m}
  0, 39.0491115409662, 0,                 !- X,Y,Z Vertex 2 {m}
  0, -4.9737991503207e-14, 0,             !- X,Y,Z Vertex 3 {m}
  0, -4.9737991503207e-14, 4.572;         !- X,Y,Z Vertex 4 {m}

OS:Surface,
  {040bc3a3-62af-405f-b972-93847791dc1b}, !- Handle
  Surface 9,                              !- Name
  Wall,                                   !- Surface Type
  ,                                       !- Construction Name
  {670831db-514d-41cf-abf7-403336ce37cc}, !- Space Name
  Surface,                                !- Outside Boundary Condition
  {b9a63438-2abf-4a1b-b17b-95877ae58e61}, !- Outside Boundary Condition Object
  NoSun,                                  !- Sun Exposure
  NoWind,                                 !- Wind Exposure
  ,                                       !- View Factor to Ground
  ,                                       !- Number of Vertices
  4.572, 39.0491115409662, 4.572,         !- X,Y,Z Vertex 1 {m}
  4.572, 39.0491115409662, 0,             !- X,Y,Z Vertex 2 {m}
  0, 39.0491115409662, 0,                 !- X,Y,Z Vertex 3 {m}
  0, 39.0491115409662, 4.572;             !- X,Y,Z Vertex 4 {m}

OS:Surface,
  {618a605c-2b36-4150-b105-005021d9873a}, !- Handle
  Surface 10,                             !- Name
  Wall,                                   !- Surface Type
  ,                                       !- Construction Name
  {670831db-514d-41cf-abf7-403336ce37cc}, !- Space Name
  Surface,                                !- Outside Boundary Condition
  {7504d8d3-79dc-41d0-98b5-a220e36a61e4}, !- Outside Boundary Condition Object
  NoSun,                                  !- Sun Exposure
  NoWind,                                 !- Wind Exposure
  ,                                       !- View Factor to Ground
  ,                                       !- Number of Vertices
  4.572, -4.9737991503207e-14, 4.572,     !- X,Y,Z Vertex 1 {m}
  4.572, -4.9737991503207e-14, 0,         !- X,Y,Z Vertex 2 {m}
  4.572, 39.0491115409662, 0,             !- X,Y,Z Vertex 3 {m}
  4.572, 39.0491115409662, 4.572;         !- X,Y,Z Vertex 4 {m}

OS:Surface,
  {280efbf7-676e-4c65-8684-792bcc22437d}, !- Handle
  Surface 11,                             !- Name
  Wall,                                   !- Surface Type
  ,                                       !- Construction Name
  {670831db-514d-41cf-abf7-403336ce37cc}, !- Space Name
  Surface,                                !- Outside Boundary Condition
  {e7488d7c-8b10-4903-92f8-261942b19c3b}, !- Outside Boundary Condition Object
  NoSun,                                  !- Sun Exposure
  NoWind,                                 !- Wind Exposure
  ,                                       !- View Factor to Ground
  ,                                       !- Number of Vertices
  0, -4.9737991503207e-14, 4.572,         !- X,Y,Z Vertex 1 {m}
  0, -4.9737991503207e-14, 0,             !- X,Y,Z Vertex 2 {m}
  4.572, -4.9737991503207e-14, 0,         !- X,Y,Z Vertex 3 {m}
  4.572, -4.9737991503207e-14, 4.572;     !- X,Y,Z Vertex 4 {m}

OS:Surface,
  {ff7ba530-7b78-4f6c-afa7-99722315e762}, !- Handle
  Surface 12,                             !- Name
  RoofCeiling,                            !- Surface Type
  {5d3c95a4-556f-4f1d-b980-8c461b055337}, !- Construction Name
  {670831db-514d-41cf-abf7-403336ce37cc}, !- Space Name
  Adiabatic,                              !- Outside Boundary Condition
  ,                                       !- Outside Boundary Condition Object
  NoSun,                                  !- Sun Exposure
  NoWind,                                 !- Wind Exposure
  ,                                       !- View Factor to Ground
  ,                                       !- Number of Vertices
  4.572, -4.9737991503207e-14, 4.572,     !- X,Y,Z Vertex 1 {m}
  4.572, 39.0491115409662, 4.572,         !- X,Y,Z Vertex 2 {m}
  0, 39.0491115409662, 4.572,             !- X,Y,Z Vertex 3 {m}
  0, -4.9737991503207e-14, 4.572;         !- X,Y,Z Vertex 4 {m}

OS:ThermalZone,
  {8b8a27f7-da38-46fe-842f-b2954b43f533}, !- Handle
  Zone OfS Hall B end_a - Story Ground,   !- Name
  1,                                      !- Multiplier
  ,                                       !- Ceiling Height {m}
  ,                                       !- Volume {m3}
  ,                                       !- Floor Area {m2}
  ,                                       !- Zone Inside Convection Algorithm
  ,                                       !- Zone Outside Convection Algorithm
  ,                                       !- Zone Conditioning Equipment List Name
  {63e6bf34-5e5f-4f68-a84d-a63c47c2bcdd}, !- Zone Air Inlet Port List
  {b17ecb65-23d9-4c05-8d7c-110968a0416d}, !- Zone Air Exhaust Port List
  {c6d3b19c-4937-406f-81cd-b81aeaf2e76d}, !- Zone Air Node Name
  {c24e1ed1-beea-4468-83c8-36d06b1e9a4c}, !- Zone Return Air Port List
  ,                                       !- Primary Daylighting Control Name
  ,                                       !- Fraction of Zone Controlled by Primary Daylighting Control
  ,                                       !- Secondary Daylighting Control Name