
OS:Version,
  {7529dc24-fd16-4b62-bb4b-5ad62cc70d89}, !- Handle
  3.2.0;                                  !- Version Identifier

OS:YearDescription,
  {4d41fd16-8e78-47f9-95d2-d3622b57bf93}, !- Handle
  ,                                       !- Calendar Year
  Sunday;                                 !- Day of Week for Start Day

OS:Site,
  {12431dfd-a6bb-4b38-af74-ace278e8b613}, !- Handle
  San Francisco Intl Ap,                  !- Name
  37.62,                                  !- Latitude {deg}
  -122.4,                                 !- Longitude {deg}
  -8,                                     !- Time Zone {hr}
  2,                                      !- Elevation {m}
  City;                                   !- Terrain

OS:Site:WaterMainsTemperature,
  {c5bc0e53-a86f-4038-9194-79c375e39049}, !- Handle
  Correlation,                            !- Calculation Method
  ,                                       !- Temperature Schedule Name
  13.7833333333333,                       !- Annual Average Outdoor Air Temperature {C}
  7.1;                                    !- Maximum Difference In Monthly Average Outdoor Air Temperatures {deltaC}

OS:SizingPeriod:DesignDay,
  {046d4087-cb3a-4a86-af1c-d9e4a246ee10}, !- Handle
  San Francisco Intl Ap Ann Clg .4% Condns DB=>MWB 1, !- Name
  28.3,                                   !- Maximum Dry-Bulb Temperature {C}
  8.5,                                    !- Daily Dry-Bulb Temperature Range {deltaC}
  17.2,                                   !- Humidity Indicating Conditions at Maximum Dry-Bulb
  101301,                                 !- Barometric Pressure {Pa}
  5.9,                                    !- Wind Speed {m/s}
  310,                                    !- Wind Direction {deg}
  0,                                      !- Sky Clearness
  0,                                      !- Rain Indicator
  0,                                      !- Snow Indicator
  21,                                     !- Day of Month
  8,                                      !- Month
  SummerDesignDay,                        !- Day Type
  0,                                      !- Daylight Saving Time Indicator
  Wetbulb,                                !- Humidity Indicating Type
  ,                                       !- Humidity Indicating Day Schedule Name
  DefaultMultipliers,                     !- Dry-Bulb Temperature Range Modifier Type
  ,                                       !- Dry-Bulb Temperature Range Modifier Schedule Name
  ASHRAETau,                              !- Solar Model Indicator
  ,                                       !- Beam Solar Day Schedule Name
  ,                                       !- Diffuse Solar Day Schedule Name
  0.365,                                  !- ASHRAE Taub {dimensionless}
  2.435;                                  !- ASHRAE Taud {dimensionless}

OS:SizingPeriod:DesignDay,
  {5870aca6-2c53-4bf7-a702-7f59dea42629}, !- Handle
  San Francisco Intl Ap Ann Clg .4% Condns WB=>MDB 1, !- Name
  25.7,                                   !- Maximum Dry-Bulb Temperature {C}
  8.5,                                    !- Daily Dry-Bulb Temperature Range {deltaC}
  18.6,                                   !- Humidity Indicating Conditions at Maximum Dry-Bulb
  101301,                                 !- Barometric Pressure {Pa}
  5.9,                                    !- Wind Speed {m/s}
  310,                                    !- Wind Direction {deg}
  0,                                      !- Sky Clearness
  0,                                      !- Rain Indicator
  0,                                      !- Snow Indicator
  21,                                     !- Day of Month
  8,                                      !- Month
  SummerDesignDay,                        !- Day Type
  0,                                      !- Daylight Saving Time Indicator
  Wetbulb,                                !- Humidity Indicating Type
  ,                                       !- Humidity Indicating Day Schedule Name
  DefaultMultipliers,                     !- Dry-Bulb Temperature Range Modifier Type
  ,                                       !- Dry-Bulb Temperature Range Modifier Schedule Name
  ASHRAETau,                              !- Solar Model Indicator
  ,                                       !- Beam Solar Day Schedule Name
  ,                                       !- Diffuse Solar Day Schedule Name
  0.365,                                  !- ASHRAE Taub {dimensionless}
  2.435;                                  !- ASHRAE Taud {dimensionless}

OS:SizingPeriod:DesignDay,
  {1850d260-596d-4f6c-91ff-7116cbd12810}, !- Handle
  San Francisco Intl Ap Ann Htg 99.6% Condns DB 1, !- Name
  3.8,                                    !- Maximum Dry-Bulb Temperature {C}
  0,                                      !- Daily Dry-Bulb Temperature Range {deltaC}
  3.8,                                    !- Humidity Indicating Conditions at Maximum Dry-Bulb
  101301,                                 !- Barometric Pressure {Pa}
  2.2,                                    !- Wind Speed {m/s}
  150,                                    !- Wind Direction {deg}
  0,                                      !- Sky Clearness
  0,                                      !- Rain Indicator
  0,                                      !- Snow Indicator
  21,                                     !- Day of Month
  1,                                      !- Month
  WinterDesignDay,                        !- Day Type
  0,                                      !- Daylight Saving Time Indicator
  Wetbulb,                                !- Humidity Indicating Type
  ,                                       !- Humidity Indicating Day Schedule Name
  DefaultMultipliers,                     !- Dry-Bulb Temperature Range Modifier Type
  ,                                       !- Dry-Bulb Temperature Range Modifier Schedule Name
  ASHRAEClearSky;                         !- Solar Model Indicator

OS:ClimateZones,
  {248aebbe-ba1a-49bd-80ef-d31a9b6c06a0}, !- Handle
  CEC,                                    !- Climate Zone Institution Name 1
  California Climate Zone Descriptions,   !- Climate Zone Document Name 1
  1995,                                   !- Climate Zone Document Year 1
  1,                                      !- Climate Zone Value 1
  ASHRAE,                                 !- Climate Zone Institution Name 2
  ANSI/ASHRAE Standard 169,               !- Climate Zone Document Name 2
  2006,                                   !- Climate Zone Document Year 2
  ;                                       !- Climate Zone Value 2

OS:Building,
  {274bc941-9805-4f87-ae8c-5042aba88b22}, !- Handle
  DEER 2015|OfS,                          !- Name
  ,                                       !- Building Sector Type
  ,                                       !- North Axis {deg}
  ,                                       !- Nominal Floor to Floor Height {m}
  ,                                       !- Space Type Name
  {64e3a594-162b-407f-b481-0915592f35c1}, !- Default Construction Set Name
  {0b7de9b5-16ba-460f-aa4c-191d62c2e666}, !- Default Schedule Set Name
  ,                                       !- Standards Number of Stories
  ,                                       !- Standards Number of Above Ground Stories
  ,                                       !- Standards Template
  OfS;                                    !- Standards Building Type

OS:SpaceType,
  {494b6db7-e158-430f-90b6-2d8f7be5b20a}, !- Handle
  OfS Hall - DEER 2015,                   !- Name
  ,                                       !- Default Construction Set Name
  {5e27e0f8-f792-41ec-bb09-b5c2b743f9f7}, !- Default Schedule Set Name
  {93c74599-aba9-411e-8088-b0b3f0462922}, !- Group Rendering Name
  {d1f0ab29-0a41-4c74-a9e4-d492d6be4f68}, !- Design Specification Outdoor Air Object Name
  ,                                       !- Standards Template
  OfS,                                    !- Standards Building Type
  Hall;                                   !- Standards Space Type

OS:SpaceType,
  {6577f283-8521-49b6-afe8-ee2d294ba51f}, !- Handle
  OfS OfficeSmall - DEER 2015,            !- Name
  ,                                       !- Default Construction Set Name
  {e02b6ede-9004-4bd6-b887-aeee42c7ccc5}, !- Default Schedule Set Name
  {47249049-4f63-4e58-b549-7d52fd3bb451}, !- Group Rendering Name
  {a346ce69-ba41-43e4-af9f-5ba27ebe01bb}, !- Design Specification Outdoor Air Object Name
  ,                                       !- Standards Template
  OfS,                                    !- Standards Building Type
  OfficeSmall;                            !- Standards Space Type

OS:BuildingStory,
  {13932d00-9c22-4cc0-ba1d-40a350f1fb11}, !- Handle
  Story Ground,                           !- Name
  0,                                      !- Nominal Z Coordinate {m}
  4.572,                                  !- Nominal Floor to Floor Height {m}
  ,                                       !- Default Construction Set Name
  ,                                       !- Default Schedule Set Name
  {eb7a18db-bc14-43e9-aa5b-c4d26d9d63bc}; !- Group Rendering Name

OS:Space,
  {f2d1b4c4-4408-4af8-a8fa-2f6722b96c27}, !- Handle
  OfS Hall A end_a - Story Ground,        !- Name
  {494b6db7-e158-430f-90b6-2d8f7be5b20a}, !- Space Type Name
  ,                                       !- Default Construction Set Name
  ,                                       !- Default Schedule Set Name
  -0,                                     !- Direction of Relative North {deg}
  -21.552614690566,                       !- X Origin {m}
  -10.776307345283,                       !- Y Origin {m}
  0,                                      !- Z Origin {m}
  {13932d00-9c22-4cc0-ba1d-40a350f1fb11}, !- Building Story Name
  {bbf3fbaa-fcb1-489c-8273-329b4e440721}; !- Thermal Zone Name

OS:Surface,
  {71340a48-6106-4097-837c-501c1d645f4f}, !- Handle
  Surface 1,                              !- Name
  Floor,                                  !- Surface Type
  ,                                       !- Construction Name
  {f2d1b4c4-4408-4af8-a8fa-2f6722b96c27}, !- Space Name
  Ground,                                 !- Outside Boundary Condition
  ,                                       !- Outside Boundary Condition Object
  NoSun,                                  !- Sun Exposure
  NoWind,                                 !- Wind Exposure
  ,                                       !- View Factor to Ground
  ,                                       !- Number of Vertices
  -3.19744231092045e-14, -1.4210854715202e-14, 0, !- X,Y,Z Vertex 1 {m}
  -3.19744231092045e-14, 4.572, 0,        !- X,Y,Z Vertex 2 {m}
  4.57199999999997, 4.572, 0,             !- X,Y,Z Vertex 3 {m}
  4.57199999999997, -1.4210854715202e-14, 0; !- X,Y,Z Vertex 4 {m}

OS:Surface,
  {978b4e4b-9da4-4c79-b4d6-a6d52442c957}, !- Handle
  Surface 2,                              !- Name
  Wall,                                   !- Surface Type
  ,                                       !- Construction Name
  {f2d1b4c4-4408-4af8-a8fa-2f6722b96c27}, !- Space Name
  Outdoors,                               !- Outside Boundary Condition
  ,                                       !- Outside Boundary Condition Object
  SunExposed,                             !- Sun Exposure
  WindExposed,                            !- Wind Exposure
  ,                                       !- View Factor to Ground
  ,                                       !- Number of Vertices
  -3.19744231092045e-14, 4.572, 4.572,    !- X,Y,Z Vertex 1 {m}
  -3.19744231092045e-14, 4.572, 0,        !- X,Y,Z Vertex 2 {m}
  -3.19744231092045e-14, -1.4210854715202e-14, 0, !- X,Y,Z Vertex 3 {m}
  -3.19744231092045e-14, -1.4210854715202e-14, 4.572; !- X,Y,Z Vertex 4 {m}

OS:Surface,
  {be58b816-3d02-480c-b696-ea187788c6b0}, !- Handle
  Surface 3,                              !- Name
  Wall,                                   !- Surface Type
  ,                                       !- Construction Name
  {f2d1b4c4-4408-4af8-a8fa-2f6722b96c27}, !- Space Name
  Surface,                                !- Outside Boundary Condition
  {fb5a2750-7bd4-43d9-948a-5f9933d6524c}, !- Outside Boundary Condition Object
  NoSun,                                  !- Sun Exposure
  NoWind,                                 !- Wind Exposure
  ,                                       !- View Factor to Ground
  ,                                       !- Number of Vertices
  4.57199999999997, 4.572, 4.572,         !- X,Y,Z Vertex 1 {m}
  4.57199999999997, 4.572, 0,             !- X,Y,Z Vertex 2 {m}
  -3.19744231092045e-14, 4.572, 0,        !- X,Y,Z Vertex 3 {m}
  -3.19744231092045e-14, 4.572, 4.572;    !- X,Y,Z Vertex 4 {m}

OS:Surface,
  {317396e7-8937-42b7-9974-289219cd77d0}, !- Handle
  Surface 4,                              !- Name
  Wall,                                   !- Surface Type
  ,                                       !- Construction Name
  {f2d1b4c4-4408-4af8-a8fa-2f6722b96c27}, !- Space Name
  Surface,                                !- Outside Boundary Condition
  {07c11cc9-b606-49eb-969e-09be8ac64c60}, !- Outside Boundary Condition Object
  NoSun,                                  !- Sun Exposure
  NoWind,                                 !- Wind Exposure
  ,                                       !- View Factor to Ground
  ,                                       !- Number of Vertices
  4.57199999999997, -1.4210854715202e-14, 4.572, !- X,Y,Z Vertex 1 {m}
  4.57199999999997, -1.4210854715202e-14, 0, !- X,Y,Z Vertex 2 {m}
  4.57199999999997, 4.572, 0,             !- X,Y,Z Vertex 3 {m}
  4.57199999999997, 4.572, 4.572;         !- X,Y,Z Vertex 4 {m}

OS:Surface,
  {1cdf75d1-a199-4fd1-aec1-b580ada80f9c}, !- Handle
  Surface 5,                              !- Name
  Wall,                                   !- Surface Type
  ,                                       !- Construction Name
  {f2d1b4c4-4408-4af8-a8fa-2f6722b96c27}, !- Space Name
  Outdoors,                               !- Outside Boundary Condition
  ,                                       !- Outside Boundary Condition Object
  SunExposed,                             !- Sun Exposure
  WindExposed,                            !- Wind Exposure
  ,                                       !- View Factor to Ground
  ,                                       !- Number of Vertices
  -3.19744231092045e-14, -1.4210854715202e-14, 4.572, !- X,Y,Z Vertex 1 {m}
  -3.19744231092045e-14, -1.4210854715202e-14, 0, !- X,Y,Z Vertex 2 {m}
  4.57199999999997, -1.4210854715202e-14, 0, !- X,Y,Z Vertex 3 {m}
  4.57199999999997, -1.4210854715202e-14, 4.572; !- X,Y,Z Vertex 4 {m}

OS:Surface,
  {03231adf-666a-4e26-aefe-860224a2f67c}, !- Handle
  Surface 6,                              !- Name
  RoofCeiling,                            !- Surface Type
  {3bd5d536-a52e-49f4-adca-23fdf124e30c}, !- Construction Name
  {f2d1b4c4-4408-4af8-a8fa-2f6722b96c27}, !- Space Name
  Adiabatic,                              !- Outside Boundary Condition
  ,                                       !- Outside Boundary Condition Object
  NoSun,                                  !- Sun Exposure
  NoWind,                                 !- Wind Exposure
  ,                                       !- View Factor to Ground
  ,                                       !- Number of Vertices
  4.57199999999997, -1.4210854715202e-14, 4.572, !- X,Y,Z Vertex 1 {m}
  4.57199999999997, 4.572, 4.572,         !- X,Y,Z Vertex 2 {m}
  -3.19744231092045e-14, 4.572, 4.572,    !- X,Y,Z Vertex 3 {m}
  -3.19744231092045e-14, -1.4210854715202e-14, 4.572; !- X,Y,Z Vertex 4 {m}

OS:ThermalZone,
  {bbf3fbaa-fcb1-489c-8273-329b4e440721}, !- Handle
  Zone OfS Hall A end_a - Story Ground,   !- Name
  1,                                      !- Multiplier
  ,                                       !- Ceiling Height {m}
  ,                                       !- Volume {m3}
  ,                                       !- Floor Area {m2}
  ,                                       !- Zone Inside Convection Algorithm
  ,                                       !- Zone Outside Convection Algorithm
  ,                                       !- Zone Conditioning Equipment List Name
  {abd81436-4456-4787-a425-58308daf136d}, !- Zone Air Inlet Port List
  {bcab3cd9-a88e-48fa-9f9b-f09c6b071184}, !- Zone Air Exhaust Port List
  {7f0f844a-4c0d-4c19-a995-6cacb00d9238}, !- Zone Air Node Name
  {e214814e-970f-44e9-9312-48f728280192}, !- Zone Return Air Port List
  ,                                       !- Primary Daylighting Control Name
  ,                                       !- Fraction of Zone Controlled by Primary Daylighting Control
  ,                                       !- Secondary Daylighting Control Name
  ,                                       !- Fraction of Zone Controlled by Secondary Daylighting Control
  ,                                       !- Illuminance Map Name
  {2bbb768b-08ad-4b10-9f8d-2c998e2afb9a}, !- Group Rendering Name
  {5d67c643-bcf0-478c-bdd1-afc67ed5dcd6}, !- Thermostat Name
  No;                                     !- Use Ideal Air Loads

OS:Node,
  {f0203a6a-7819-4c59-b9ed-20cedf0c2d19}, !- Handle
  Zone OfS Hall A end_a - Story Ground Zone Air Node, !- Name
  {7f0f844a-4c0d-4c19-a995-6cacb00d9238}, !- Inlet Port
  ;                                       !- Outlet Port

OS:Connection,
  {7f0f844a-4c0d-4c19-a995-6cacb00d9238}, !- Handle
  {bbf3fbaa-fcb1-489c-8273-329b4e440721}, !- Source Object
  11,                                     !- Outlet Port
  {f0203a6a-7819-4c59-b9ed-20cedf0c2d19}, !- Target Object
  2;                                      !- Inlet Port

OS:PortList,
  {abd81436-4456-4787-a425-58308daf136d}, !- Handle
  {bbf3fbaa-fcb1-489c-8273-329b4e440721}, !- HVAC Component
  {b9c93973-80d4-4c98-8eb4-539ca930a7f4}; !- Port 1

OS:PortList,
  {bcab3cd9-a88e-48fa-9f9b-f09c6b071184}, !- Handle
  {bbf3fbaa-fcb1-489c-8273-329b4e440721}; !- HVAC Component

OS:PortList,
  {e214814e-970f-44e9-9312-48f728280192}, !- Handle
  {bbf3fbaa-fcb1-489c-8273-329b4e440721}, !- HVAC Component
  {2288010a-8131-4de8-ae00-f782af90c519}; !- Port 1

OS:Sizing:Zone,
  {da450088-1b45-4ca7-bb49-a5e94ca182dd}, !- Handle
  {bbf3fbaa-fcb1-489c-8273-329b4e440721}, !- Zone or ZoneList Name
  SupplyAirTemperature,                   !- Zone Cooling Design Supply Air Temperature Input Method
  12.7777777777778,                       !- Zone Cooling Design Supply Air Temperature {C}
  11.11,                                  !- Zone Cooling Design Supply Air Temperature Difference {deltaC}
  SupplyAirTemperature,                   !- Zone Heating Design Supply Air Temperature Input Method
  40.0000000000001,                       !- Zone Heating Design Supply Air Temperature {C}
  11.11,                                  !- Zone Heating Design Supply Air Temperature Difference {deltaC}
  0.0085,                                 !- Zone Cooling Design Supply Air Humidity Ratio {kg-H2O/kg-air}
  0.008,                                  !- Zone Heating Design Supply Air Humidity Ratio {kg-H2O/kg-air}
  ,                                       !- Zone Heating Sizing Factor
  ,                                       !- Zone Cooling Sizing Factor
  DesignDayWithLimit,                     !- Cooling Design Air Flow Method
  ,                                       !- Cooling Design Air Flow Rate {m3/s}
  ,                                       !- Cooling Minimum Air Flow per Zone Floor Area {m3/s-m2}
  ,                                       !- Cooling Minimum Air Flow {m3/s}
  ,                                       !- Cooling Minimum Air Flow Fraction
  DesignDay,                              !- Heating Design Air Flow Method
  ,                                       !- Heating Design Air Flow Rate {m3/s}
  ,                                       !- Heating Maximum Air Flow per Zone Floor Area {m3/s-m2}
  ,                                       !- Heating Maximum Air Flow {m3/s}
  ,                                       !- Heating Maximum Air Flow Fraction
  No,                                     !- Account for Dedicated Outdoor Air System
  NeutralSupplyAir,                       !- Dedicated Outdoor Air System Control Strategy
  autosize,                               !- Dedicated Outdoor Air Low Setpoint Temperature for Design {C}
  autosize;                               !- Dedicated Outdoor Air High Setpoint Temperature for Design {C}

OS:ZoneHVAC:EquipmentList,
  {8248869e-da80-4596-8a14-fe7ad047f0fb}, !- Handle
  Zone OfS Hall A end_a - Story Ground Zone HVAC Equipment List, !- Name
  {bbf3fbaa-fcb1-489c-8273-329b4e440721}, !- Thermal Zone
  ,                                       !- Load Distribution Scheme
  {330d1351-3b13-4afe-9f73-8a1318045efd}, !- Zone Equipment 1
  1,                                      !- Zone Equipment Cooling Sequence 1
  1,                                      !- Zone Equipment Heating or No-Load Sequence 1
  ,                                       !- Zone Equipment Sequential Cooling Fraction Schedule Name 1
  ;                                       !- Zone Equipment Sequential Heating Fraction Schedule Name 1

OS:Space,
  {72f97f51-6abf-45f2-8d41-4a49351ba6ff}, !- Handle
  OfS Hall B end_a - Story Ground,        !- Name
  {494b6db7-e158-430f-90b6-2d8f7be5b20a}, !- Space Type Name
  ,                                       !- Default Construction Set Name
  ,                                       !- Default Schedule Set Name
  -0,                                     !- Direction of Relative North {deg}
  -21.552614690566,                       !- X Origin {m}
  -6.20430734528299,                      !- Y Origin {m}
  0,                                      !- Z Origin {m}
  {13932d00-9c22-4cc0-ba1d-40a350f1fb11}, !- Building Story Name
  {a4a33bf1-76fb-413b-bb16-7c69f31b9cb0}; !- Thermal Zone Name

OS:Surface,
  {1a963227-3bff-49a0-9f0d-9a81ca292eca}, !- Handle
  Surface 7,                              !- Name
  Floor,                                  !- Surface Type
  ,                                       !- Construction Name
  {72f97f51-6abf-45f2-8d41-4a49351ba6ff}, !- Space Name
  Ground,                                 !- Outside Boundary Condition
  ,                                       !- Outside Boundary Condition Object
  NoSun,                                  !- Sun Exposure
  NoWind,                                 !- Wind Exposure
  ,                                       !- View Factor to Ground
  ,                                       !- Number of Vertices
  -3.19744231092045e-14, -4.44089209850063e-15, 0, !- X,Y,Z Vertex 1 {m}
  -3.19744231092045e-14, 12.408614690566, 0, !- X,Y,Z Vertex 2 {m}
  4.57199999999997, 12.408614690566, 0,   !- X,Y,Z Vertex 3 {m}
  4.57199999999997, -4.44089209850063e-15, 0; !- X,Y,Z Vertex 4 {m}

OS:Surface,
  {faaf208a-46b0-4997-a402-3e3e22f26bf3}, !- Handle
  Surface 8,                              !- Name
  Wall,                                   !- Surface Type
  ,                                       !- Construction Name
  {72f97f51-6abf-45f2-8d41-4a49351ba6ff}, !- Space Name
  Outdoors,                               !- Outside Boundary Condition
  ,                                       !- Outside Boundary Condition Object
  SunExposed,                             !- Sun Exposure
  WindExposed,                            !- Wind Exposure
  ,                                       !- View Factor to Ground
  ,                                       !- Number of Vertices
  -3.19744231092045e-14, 12.408614690566, 4.572, !- X,Y,Z Vertex 1 {m}
  -3.19744231092045e-14, 12.408614690566, 0, !- X,Y,Z Vertex 2 {m}
  -3.19744231092045e-14, -4.44089209850063e-15, 0, !- X,Y,Z Vertex 3 {m}
  -3.19744231092045e-14, -4.44089209850063e-15, 4.572; !- X,Y,Z Vertex 4 {m}

OS:Surface,
  {9f902378-bcf1-426c-a977-c0dfc067dce2}, !- Handle
  Surface 9,                              !- Name
  Wall,                                   !- Surface Type
  ,                                       !- Construction Name
  {72f97f51-6abf-45f2-8d41-4a49351ba6ff}, !- Space Name
  Surface,                                !- Outside Boundary Condition
  {2f60e768-e192-46e1-9baf-fe3dc0abebc1}, !- Outside Boundary Condition Object
  NoSun,                                  !- Sun Exposure
  NoWind,                                 !- Wind Exposure
  ,                                       !- View Factor to Ground
  ,                                       !- Number of Vertices
  4.57199999999997, 12.408614690566, 4.572, !- X,Y,Z Vertex 1 {m}
  4.57199999999997, 12.408614690566, 0,   !- X,Y,Z Vertex 2 {m}
  -3.19744231092045e-14, 12.408614690566, 0, !- X,Y,Z Vertex 3 {m}
  -3.19744231092045e-14, 12.408614690566, 4.572; !- X,Y,Z Vertex 4 {m}

OS:Surface,
  {b1108019-ad35-437e-b22a-96aed6e4976b}, !- Handle
  Surface 10,                             !- Name
  Wall,                                   !- Surface Type
  ,                                       !- Construction Name
  {72f97f51-6abf-45f2-8d41-4a49351ba6ff}, !- Space Name
  Surface,                                !- Outside Boundary Condition
  {abe966cb-1f5c-4cdc-84ad-52241474b30e}, !- Outside Boundary Condition Object
  NoSun,                                  !- Sun Exposure
  NoWind,                                 !- Wind Exposure
  ,                                       !- View Factor to Ground
  ,                                       !- Number of Vertices
  4.57199999999997, -4.44089209850063e-15, 4.572, !- X,Y,Z Vertex 1 {m}
  4.57199999999997, -4.44089209850063e-15, 0, !- X,Y,Z Vertex 2 {m}
  4.57199999999997, 12.408614690566, 0,   !- X,Y,Z Vertex 3 {m}
  4.57199999999997, 12.408614690566, 4.572; !- X,Y,Z Vertex 4 {m}

OS:Surface,
  {fb5a2750-7bd4-43d9-948a-5f9933d6524c}, !- Handle
  Surface 11,                             !- Name
  Wall,                                   !- Surface Type
  ,                                       !- Construction Name
  {72f97f51-6abf-45f2-8d41-4a49351ba6ff}, !- Space Name
  Surface,                                !- Outside Boundary Condition
  {be58b816-3d02-480c-b696-ea187788c6b0}, !- Outside Boundary Condition Object
  NoSun,                                  !- Sun Exposure
  NoWind,                                 !- Wind Exposure
  ,                                       !- View Factor to Ground
  ,                                       !- Number of Vertices
  -3.19744231092045e-14, -4.44089209850063e-15, 4.572, !- X,Y,Z Vertex 1 {m}
  -3.19744231092045e-14, -4.44089209850063e-15, 0, !- X,Y,Z Vertex 2 {m}
  4.57199999999997, -4.44089209850063e-15, 0, !- X,Y,Z Vertex 3 {m}
  4.57199999999997, -4.44089209850063e-15, 4.572; !- X,Y,Z Vertex 4 {m}

OS:Surface,
  {8c7b1fb8-bca4-4982-b379-8691d4d2a6c4}, !- Handle
  Surface 12,                             !- Name
  RoofCeiling,                            !- Surface Type
  {3bd5d536-a52e-49f4-adca-23fdf124e30c}, !- Construction Name
  {72f97f51-6abf-45f2-8d41-4a49351ba6ff}, !- Space Name
  Adiabatic,                              !- Outside Boundary Condition
  ,                                       !- Outside Boundary Condition Object
  NoSun,                                  !- Sun Exposure
  NoWind,                                 !- Wind Exposure
  ,                                       !- View Factor to Ground
  ,                                       !- Number of Vertices
  4.57199999999997, -4.44089209850063e-15, 4.572, !- X,Y,Z Vertex 1 {m}
  4.57199999999997, 12.408614690566, 4.572, !- X,Y,Z Vertex 2 {m}
  -3.19744231092045e-14, 12.408614690566, 4.572, !- X,Y,Z Vertex 3 {m}
  -3.19744231092045e-14, -4.44089209850063e-15, 4.572; !- X,Y,Z Vertex 4 {m}

OS:ThermalZone,
  {a4a33bf1-76fb-413b-bb16-7c69f31b9cb0}, !- Handle
  Zone OfS Hall B end_a - Story Ground,   !- Name
  1,                                      !- Multiplier
  ,                                       !- Ceiling Height {m}
  ,                                       !- Volume {m3}
  ,                                       !- Floor Area {m2}
  ,                                       !- Zone Inside Convection Algorithm
  ,                                       !- Zone Outside Convection Algorithm
  ,                                       !- Zone Conditioning Equipment List Name
  {c7ee4574-32ad-4f81-bcc0-d0bea1c80fb8}, !- Zone Air Inlet Port List
  {212a8393-afdc-45e0-9ec9-ee0c17ce68a3}, !- Zone Air Exhaust Port List
  {ff01e4b4-d6ce-449b-a133-1a73c7ccc3a2}, !- Zone Air Node Name
  {14e66414-e5b2-4067-8225-2e5fb645da15}, !- Zone Return Air Port List
  ,                                       !- Primary Daylighting Control Name
  ,                                       !- Fraction of Zone Controlled by Primary Daylighting Control
  ,                                       !- Secondary Daylighting Control Name
  ,                                       !- Fraction of Zone Controlled by Secondary Daylighting Control
  ,                                       !- Illuminance Map Name
  {32bf8658-45bc-4fb0-b571-a2d675260157}, !- Group Rendering Name
  {02eaddcc-c62a-4224-97e1-d3e891691b4c}, !- Thermostat Name
  No;                                     !- Use Ideal Air Loads

OS:Node,
  {50bd8072-73ec-45ce-b435-d830519f79cb}, !- Handle
  Zone OfS Hall B end_a - Story Ground Zone Air Node, !- Name
  {ff01e4b4-d6ce-449b-a133-1a73c7ccc3a2}, !- Inlet Port
  ;                                       !- Outlet Port

OS:Connection,
  {ff01e4b4-d6ce-449b-a133-1a73c7ccc3a2}, !- Handle
  {a4a33bf1-76fb-413b-bb16-7c69f31b9cb0}, !- Source Object
  11,                                     !- Outlet Port
  {50bd8072-73ec-45ce-b435-d830519f79cb}, !- Target Object
  2;                                      !- Inlet Port

OS:PortList,
  {c7ee4574-32ad-4f81-bcc0-d0bea1c80fb8}, !- Handle
  {a4a33bf1-76fb-413b-bb16-7c69f31b9cb0}, !- HVAC Component
  {beae8a7d-78f5-4492-af9a-fa745960cabb}; !- Port 1

OS:PortList,